
     RDKit          3D

 20 22  0  0  0  0  0  0  0  0999 V2000
    0.0000   -0.0000    0.0000 C   0  0  0  0  0  0  0  0  0  0  0  0
    0.0000   -0.0000    1.3782 C   0  0  0  0  0  0  0  0  0  0  0  0
    1.1928   -0.0000    2.0844 C   0  0  0  0  0  0  0  0  0  0  0  0
    1.1990   -0.0589   -0.6931 C   0  0  0  0  0  0  0  0  0  0  0  0
    2.3926   -0.0589   -0.0040 C   0  0  0  0  0  0  0  0  0  0  0  0
    2.4613   -0.0011    1.3953 C   0  0  0  0  0  0  0  0  0  0  0  0
    3.6935    0.0454    1.9565 O   0  0  0  0  0  0  0  0  0  0  0  0
    3.8130    0.1558    3.3654 C   0  0  0  0  0  0  0  0  0  0  0  0
    5.2663    0.2442    3.6969 C   0  0  0  0  0  0  0  0  0  0  0  0
    6.0968   -0.6807    4.2737 C   0  0  0  0  0  0  0  0  0  0  0  0
    5.9651    1.3955    3.4903 N   0  0  0  0  0  0  0  0  0  0  0  0
    7.3459   -0.1181    4.3060 N   0  0  0  0  0  0  0  0  0  0  0  0
    7.1911    1.1465    3.8213 C   0  0  0  0  0  0  0  0  0  0  0  0
    8.5641   -0.7346    4.7726 C   0  0  0  0  0  0  0  0  0  0  0  0
    8.9212   -1.9371    3.9468 C   0  0  0  0  0  0  0  0  0  0  0  0
    9.1754   -3.1951    4.5115 C   0  0  0  0  0  0  0  0  0  0  0  0
    9.0068   -1.8683    2.5570 C   0  0  0  0  0  0  0  0  0  0  0  0
    9.4434   -4.2789    3.8281 N   0  0  0  0  0  0  0  0  0  0  0  0
    9.2895   -3.0096    1.8380 C   0  0  0  0  0  0  0  0  0  0  0  0
    9.4782   -4.1891    2.5226 C   0  0  0  0  0  0  0  0  0  0  0  0
  2  1  2  0
  3  2  1  0
  4  1  1  0
  5  4  2  0
  6  5  1  0
  6  3  2  0
  7  6  1  0
  8  7  1  0
  9  8  1  0
 10  9  2  0
 11  9  1  0
 12 10  1  0
 13 12  1  0
 13 11  2  0
 14 12  1  0
 15 14  1  0
 16 15  2  0
 17 15  1  0
 18 16  1  0
 19 17  2  0
 20 19  1  0
 20 18  2  0
M  END
>  <SMILES>  (1) 
c1ccc(OCc2cn(Cc3cccnc3)cn2)cc1

>  <scaffold>  (1) 
benzene

$$$$

     RDKit          3D

 26 28  0  0  0  0  0  0  0  0999 V2000
   -0.0000   -0.0000    0.0000 C   0  0  0  0  0  0  0  0  0  0  0  0
   -0.0000    0.0000    1.3862 C   0  0  0  0  0  0  0  0  0  0  0  0
    1.2042   -0.0000    2.0726 C   0  0  0  0  0  0  0  0  0  0  0  0
    1.1585    0.0000   -0.7465 C   0  0  0  0  0  0  0  0  0  0  0  0
    2.3976    0.0000   -0.1076 C   0  0  0  0  0  0  0  0  0  0  0  0
    2.3976    0.0000    1.2865 C   0  0  0  0  0  0  0  0  0  0  0  0
    3.5884    0.0500   -0.8154 N   0  0  0  0  0  0  0  0  0  0  0  0
    3.5879    0.0995   -2.1235 N   0  0  0  0  0  0  0  0  0  0  0  0
    4.7100    0.0984   -2.7380 C   0  0  0  0  0  0  0  0  0  0  0  0
    4.7604    0.0998   -4.1800 C   0  0  0  0  0  0  0  0  0  0  0  0
    6.0056    0.0482   -4.8047 C   0  0  0  0  0  0  0  0  0  0  0  0
    3.6114    0.1022   -4.9554 C   0  0  0  0  0  0  0  0  0  0  0  0
    6.1012   -0.0023   -6.1787 C   0  0  0  0  0  0  0  0  0  0  0  0
    3.7090    0.0537   -6.3293 C   0  0  0  0  0  0  0  0  0  0  0  0
    4.9741   -0.0043   -6.9992 C   0  0  0  0  0  0  0  0  0  0  0  0
    2.5548    0.1073   -7.0514 F   0  0  0  0  0  0  0  0  0  0  0  0
    5.0183   -0.1023   -8.3575 N   0  0  0  0  0  0  0  0  0  0  0  0
    6.2310    0.0451   -9.1097 C   0  0  0  0  0  0  0  0  0  0  0  0
    6.8424    1.4167   -9.1259 C   0  0  0  0  0  0  0  0  0  0  0  0
    6.1741    2.4893   -8.7306 C   0  0  0  0  0  0  0  0  0  0  0  0
    6.7402    3.8334   -8.6783 C   0  0  0  0  0  0  0  0  0  0  0  0
    5.8897    4.8304   -8.1795 C   0  0  0  0  0  0  0  0  0  0  0  0
    8.0197    4.2075   -9.0865 C   0  0  0  0  0  0  0  0  0  0  0  0
    6.3976    6.1065   -8.0655 C   0  0  0  0  0  0  0  0  0  0  0  0
    8.5254    5.4760   -8.9727 C   0  0  0  0  0  0  0  0  0  0  0  0
    7.6947    6.4858   -8.4080 C   0  0  0  0  0  0  0  0  0  0  0  0
  2  1  2  0
  3  2  1  0
  4  1  1  0
  5  4  2  0
  6  5  1  0
  6  3  2  0
  7  5  1  0
  8  7  1  0
  9  8  2  0
 10  9  1  0
 11 10  2  0
 12 10  1  0
 13 11  1  0
 14 12  2  0
 15 14  1  0
 15 13  2  0
 16 14  1  0
 17 15  1  0
 18 17  1  0
 19 18  1  0
 20 19  2  0
 21 20  1  0
 22 21  2  0
 23 21  1  0
 24 22  1  0
 25 23  2  0
 26 25  1  0
 26 24  2  0
M  END
>  <SMILES>  (2) 
Fc1cc(C=NNc2ccccc2)ccc1NCC=Cc1ccccc1

>  <scaffold>  (2) 
benzene

$$$$

     RDKit          3D

 18 19  0  0  0  0  0  0  0  0999 V2000
    0.0000   -0.0000   -0.0000 C   0  0  0  0  0  0  0  0  0  0  0  0
   -0.0000   -0.0000    1.3862 C   0  0  0  0  0  0  0  0  0  0  0  0
    1.2042    0.0000    2.0726 C   0  0  0  0  0  0  0  0  0  0  0  0
    1.1990   -0.0589   -0.6931 C   0  0  0  0  0  0  0  0  0  0  0  0
    2.4366   -0.1197   -0.0541 C   0  0  0  0  0  0  0  0  0  0  0  0
    2.4387   -0.0605    1.3387 C   0  0  0  0  0  0  0  0  0  0  0  0
   -1.1786   -0.0579    2.0674 F   0  0  0  0  0  0  0  0  0  0  0  0
    3.6565   -0.2297   -0.7030 N   0  0  0  0  0  0  0  0  0  0  0  0
    3.8984   -0.2992   -2.0501 C   0  0  0  0  0  0  0  0  0  0  0  0
    3.0830   -0.2199   -2.9475 O   0  0  0  0  0  0  0  0  0  0  0  0
    5.2296   -0.4551   -2.2950 N   0  0  0  0  0  0  0  0  0  0  0  0
    5.7381   -0.3898   -3.6526 C   0  0  0  0  0  0  0  0  0  0  0  0
    6.4835    0.8725   -3.8266 C   0  0  0  0  0  0  0  0  0  0  0  0
    7.7661    0.9719   -3.7999 N   0  0  0  0  0  0  0  0  0  0  0  0
    5.6963    2.3872   -4.1258 S   0  0  0  0  0  0  0  0  0  0  0  0
    8.2038    2.2553   -3.9328 C   0  0  0  0  0  0  0  0  0  0  0  0
    7.2323    3.1896   -4.1117 C   0  0  0  0  0  0  0  0  0  0  0  0
    9.6437    2.5770   -3.9854 C   0  0  0  0  0  0  0  0  0  0  0  0
  2  1  2  0
  3  2  1  0
  4  1  1  0
  5  4  2  0
  6  5  1  0
  6  3  2  0
  7  2  1  0
  8  5  1  0
  9  8  1  0
 10  9  2  0
 11  9  1  0
 12 11  1  0
 13 12  1  0
 14 13  2  0
 15 13  1  0
 16 14  1  0
 17 16  2  0
 17 15  1  0
 18 16  1  0
M  END
>  <SMILES>  (3) 
Cc1csc(CNC(=O)Nc2ccc(F)cc2)n1

>  <scaffold>  (3) 
benzene

$$$$

     RDKit          3D

 22 24  0  0  0  0  0  0  0  0999 V2000
   -0.0000   -0.0000   -0.0000 C   0  0  0  0  0  0  0  0  0  0  0  0
    0.0000   -0.0000    1.4183 C   0  0  0  0  0  0  0  0  0  0  0  0
    1.2042   -0.0000    2.1048 C   0  0  0  0  0  0  0  0  0  0  0  0
    1.1922    0.0586   -0.6891 C   0  0  0  0  0  0  0  0  0  0  0  0
    2.4064    0.0586    0.0119 C   0  0  0  0  0  0  0  0  0  0  0  0
    2.4064    0.0586    1.3981 C   0  0  0  0  0  0  0  0  0  0  0  0
   -1.1972   -0.0000    2.0357 O   0  0  0  0  0  0  0  0  0  0  0  0
    3.6372    0.0663   -0.6428 N   0  0  0  0  0  0  0  0  0  0  0  0
    3.8799    0.0128   -1.9511 N   0  0  0  0  0  0  0  0  0  0  0  0
    4.7648    0.1140    0.0640 N   0  0  0  0  0  0  0  0  0  0  0  0
    5.2002   -0.0067   -2.1242 C   0  0  0  0  0  0  0  0  0  0  0  0
    5.7360    0.0564   -0.8229 C   0  0  0  0  0  0  0  0  0  0  0  0
   -1.2484    0.0512    3.4521 C   0  0  0  0  0  0  0  0  0  0  0  0
    6.1124   -0.0051   -3.6447 S   0  0  0  0  0  6  0  0  0  0  0  0
    7.1141   -1.0395   -3.7353 O   0  0  0  0  0  0  0  0  0  0  0  0
    5.0770   -0.0874   -4.6343 O   0  0  0  0  0  0  0  0  0  0  0  0
    6.9532    1.5766   -3.7343 C   0  0  0  0  0  0  0  0  0  0  0  0
    6.1686    2.7116   -3.8670 C   0  0  0  0  0  0  0  0  0  0  0  0
    8.3261    1.6899   -3.5202 C   0  0  0  0  0  0  0  0  0  0  0  0
    6.7376    3.8903   -3.8892 N   0  0  0  0  0  0  0  0  0  0  0  0
    8.9134    2.9191   -3.5506 C   0  0  0  0  0  0  0  0  0  0  0  0
    8.0766    4.0695   -3.7879 C   0  0  0  0  0  0  0  0  0  0  0  0
  2  1  2  0
  3  2  1  0
  4  1  1  0
  5  4  2  0
  6  5  1  0
  6  3  2  0
  7  2  1  0
  8  5  1  0
  9  8  1  0
 10  8  1  0
 11  9  2  0
 12 10  2  0
 12 11  1  0
 13  7  1  0
 14 11  1  0
 15 14  2  0
 16 14  2  0
 17 14  1  0
 18 17  2  0
 19 17  1  0
 20 18  1  0
 21 19  2  0
 22 20  2  0
 22 21  1  0
M  END
>  <SMILES>  (4) 
COc1ccc(-n2ncc(S(=O)(=O)c3cccnc3)n2)cc1

>  <scaffold>  (4) 
benzene

$$$$

     RDKit          3D

 26 28  0  0  0  0  0  0  0  0999 V2000
    0.0000   -0.0000    0.0000 C   0  0  0  0  0  0  0  0  0  0  0  0
   -0.0000    0.0000    1.3704 C   0  0  0  0  0  0  0  0  0  0  0  0
    1.2251    0.0000    2.0688 C   0  0  0  0  0  0  0  0  0  0  0  0
    1.2059   -0.0592   -0.6971 C   0  0  0  0  0  0  0  0  0  0  0  0
    2.4294   -0.1193   -0.0654 C   0  0  0  0  0  0  0  0  0  0  0  0
    2.4316   -0.0588    1.3598 C   0  0  0  0  0  0  0  0  0  0  0  0
    3.6130    0.0133    2.0190 N   0  0  0  0  0  0  0  0  0  0  0  0
    3.5703    0.0198    3.3050 C   0  0  0  0  0  0  0  0  0  0  0  0
    2.4108   -0.0411    4.0765 C   0  0  0  0  0  0  0  0  0  0  0  0
    1.2463   -0.0535    3.4953 N   0  0  0  0  0  0  0  0  0  0  0  0
    3.5163   -0.2251   -0.8408 O   0  0  0  0  0  0  0  0  0  0  0  0
    4.7029   -0.7477   -0.3736 C   0  0  0  0  0  0  0  0  0  0  0  0
    4.7612   -1.9647    0.2707 C   0  0  0  0  0  0  0  0  0  0  0  0
    5.8654   -0.0587   -0.7161 C   0  0  0  0  0  0  0  0  0  0  0  0
    5.9777   -2.4694    0.6768 C   0  0  0  0  0  0  0  0  0  0  0  0
    7.0866   -0.5742   -0.3106 C   0  0  0  0  0  0  0  0  0  0  0  0
    7.1527   -1.7786    0.3844 C   0  0  0  0  0  0  0  0  0  0  0  0
    8.3972   -2.1456    0.7744 O   0  0  0  0  0  0  0  0  0  0  0  0
    8.5720   -3.2867    1.5983 C   0  0  0  0  0  0  0  0  0  0  0  0
    8.2016   -2.9976    3.0521 C   0  0  0  0  0  0  0  0  0  0  0  0
    8.5814   -4.1182    4.0188 C   0  0  2  0  0  0  0  0  0  0  0  0
    7.7476   -5.3630    3.7195 C   0  0  0  0  0  0  0  0  0  0  0  0
    8.3190   -3.7166    5.4694 C   0  0  0  0  0  0  0  0  0  0  0  0
    8.7338   -4.7839    6.4809 C   0  0  0  0  0  0  0  0  0  0  0  0
    8.4029   -4.3592    7.9015 C   0  0  0  0  0  0  0  0  0  0  0  0
    8.8480   -5.3700    8.9573 C   0  0  0  0  0  0  0  0  0  0  0  0
  2  1  2  0
  3  2  1  0
  4  1  1  0
  5  4  2  0
  6  5  1  0
  6  3  2  0
  7  6  1  0
  8  7  2  0
  9  8  1  0
 10  9  2  0
 10  3  1  0
 11  5  1  0
 12 11  1  0
 13 12  2  0
 14 12  1  0
 15 13  1  0
 16 14  2  0
 17 16  1  0
 17 15  2  0
 18 17  1  0
 19 18  1  0
 20 19  1  0
 21 20  1  0
 21 22  1  6
 23 21  1  0
 24 23  1  0
 25 24  1  0
 26 25  1  0
M  END
>  <SMILES>  (5) 
CCCCC(C)CCOc1ccc(Oc2cccc3nccnc23)cc1

>  <scaffold>  (5) 
benzene

$$$$

     RDKit          3D

 26 27  0  0  0  0  0  0  0  0999 V2000
    0.0000   -0.0000   -0.0000 C   0  0  0  0  0  0  0  0  0  0  0  0
   -0.0000   -0.0000    1.4021 C   0  0  0  0  0  0  0  0  0  0  0  0
    1.2223   -0.0000    2.0725 C   0  0  0  0  0  0  0  0  0  0  0  0
    1.1585    0.0000   -0.7465 C   0  0  0  0  0  0  0  0  0  0  0  0
    2.3905    0.0000   -0.1112 C   0  0  0  0  0  0  0  0  0  0  0  0
    2.4570   -0.0586    1.2642 C   0  0  0  0  0  0  0  0  0  0  0  0
   -1.2391    0.0000    2.0411 N   0  0  0  0  0  0  0  0  0  0  0  0
    3.5543    0.0489   -0.8030 F   0  0  0  0  0  0  0  0  0  0  0  0
   -1.4871    0.2480    3.3821 C   0  0  0  0  0  0  0  0  0  0  0  0
   -0.6438    0.3964    4.2443 O   0  0  0  0  0  0  0  0  0  0  0  0
   -2.8277    0.3164    3.6160 N   0  0  0  0  0  0  0  0  0  0  0  0
   -3.3261    0.4063    4.9759 C   0  0  0  0  0  0  0  0  0  0  0  0
   -3.6934   -0.9674    5.4593 C   0  0  0  0  0  0  0  0  0  0  0  0
   -2.9261   -1.6573    6.3251 C   0  0  0  0  0  0  0  0  0  0  0  0
   -4.8759   -1.6647    5.0720 C   0  0  0  0  0  0  0  0  0  0  0  0
   -3.5856   -3.2102    6.6230 S   0  0  0  0  0  0  0  0  0  0  0  0
   -5.0078   -2.8958    5.5624 C   0  0  0  0  0  0  0  0  0  0  0  0
   -6.0691   -3.9189    5.3245 C   0  0  0  0  0  0  0  0  0  0  0  0
   -5.8334   -5.3011    5.9091 C   0  0  0  0  0  0  0  0  0  0  0  0
   -4.8696   -5.5761    6.5838 O   0  0  0  0  0  0  0  0  0  0  0  0
   -6.7661   -6.1783    5.6368 O   0  0  0  0  0  0  0  0  0  0  0  0
   -6.6993   -7.5506    6.0494 C   0  0  0  0  0  0  0  0  0  0  0  0
   -5.7789   -8.3341    5.1148 C   0  0  0  0  0  0  0  0  0  0  0  0
   -6.2405   -8.3287    3.6583 C   0  0  0  0  0  0  0  0  0  0  0  0
   -5.2592   -9.0780    2.7584 C   0  0  0  0  0  0  0  0  0  0  0  0
   -5.6478   -9.0549    1.2810 C   0  0  0  0  0  0  0  0  0  0  0  0
  2  1  2  0
  3  2  1  0
  4  1  1  0
  5  4  2  0
  6  5  1  0
  6  3  2  0
  7  2  1  0
  8  5  1  0
  9  7  1  0
 10  9  2  0
 11  9  1  0
 12 11  1  0
 13 12  1  0
 14 13  2  0
 15 13  1  0
 16 14  1  0
 17 15  2  0
 17 16  1  0
 18 17  1  0
 19 18  1  0
 20 19  2  0
 21 19  1  0
 22 21  1  0
 23 22  1  0
 24 23  1  0
 25 24  1  0
 26 25  1  0
M  END
>  <SMILES>  (6) 
CCCCCOC(=O)Cc1cc(CNC(=O)Nc2ccc(F)cc2)cs1

>  <scaffold>  (6) 
benzene

$$$$

     RDKit          3D

 33 35  0  0  0  0  0  0  0  0999 V2000
   -0.0000   -0.0000   -0.0000 C   0  0  0  0  0  0  0  0  0  0  0  0
    0.0000    0.0000    1.3941 C   0  0  0  0  0  0  0  0  0  0  0  0
    1.1928    0.0000    2.1003 C   0  0  0  0  0  0  0  0  0  0  0  0
    1.2391    0.0000   -0.6390 C   0  0  0  0  0  0  0  0  0  0  0  0
    2.3976    0.0000    0.1076 C   0  0  0  0  0  0  0  0  0  0  0  0
    2.3976    0.0000    1.4937 C   0  0  0  0  0  0  0  0  0  0  0  0
   -1.1719   -0.0000   -0.7551 N   0  0  0  0  0  0  0  0  0  0  0  0
   -2.4827    0.0000   -0.3555 C   0  0  0  0  0  0  0  0  0  0  0  0
   -2.8124   -0.0000    0.8069 O   0  0  0  0  0  0  0  0  0  0  0  0
   -3.3629    0.0544   -1.4146 N   0  0  0  0  0  0  0  0  0  0  0  0
   -4.7485    0.0175   -1.4288 C   0  0  0  0  0  0  0  0  0  0  0  0
   -5.3108    0.0385   -2.6275 N   0  0  0  0  0  0  0  0  0  0  0  0
   -5.5143   -0.0895   -0.2688 C   0  0  0  0  0  0  0  0  0  0  0  0
   -6.6249   -0.0444   -2.7672 C   0  0  0  0  0  0  0  0  0  0  0  0
   -6.8822   -0.1699   -0.4163 C   0  0  0  0  0  0  0  0  0  0  0  0
   -7.4625   -0.1556   -1.6784 C   0  0  0  0  0  0  0  0  0  0  0  0
   -8.8279   -0.2892   -1.8766 N   0  0  0  0  0  0  0  0  0  0  0  0
   -9.6175   -0.3424   -2.9954 C   0  0  0  0  0  0  0  0  0  0  0  0
   -9.1057   -0.2640   -4.0947 O   0  0  0  0  0  0  0  0  0  0  0  0
  -11.0513   -0.5517   -2.7612 C   0  0  0  0  0  0  0  0  0  0  0  0
  -11.7205   -0.7651   -1.5754 C   0  0  0  0  0  0  0  0  0  0  0  0
  -11.9378   -0.5694   -3.7855 O   0  0  0  0  0  0  0  0  0  0  0  0
  -13.0465   -0.9457   -1.9939 C   0  0  0  0  0  0  0  0  0  0  0  0
  -13.1664   -0.8279   -3.3191 C   0  0  0  0  0  0  0  0  0  0  0  0
  -14.3390   -0.8485   -4.2159 C   0  0  0  0  0  0  0  0  0  0  0  0
  -15.4905   -1.0230   -3.8946 O   0  0  0  0  0  0  0  0  0  0  0  0
  -13.9596   -0.5813   -5.4722 O   0  0  0  0  0  0  0  0  0  0  0  0
  -14.9574   -0.5008   -6.4769 C   0  0  0  0  0  0  0  0  0  0  0  0
  -15.4421   -1.8813   -6.9169 C   0  0  0  0  0  0  0  0  0  0  0  0
  -16.5222   -1.7124   -8.3908 S   0  0  0  0  0  0  0  0  0  0  0  0
  -16.6458   -3.4226   -8.9835 C   0  0  0  0  0  0  0  0  0  0  0  0
  -15.3536   -3.9606   -9.5958 C   0  0  0  0  0  0  0  0  0  0  0  0
  -15.4943   -5.4191  -10.0286 C   0  0  0  0  0  0  0  0  0  0  0  0
  2  1  2  0
  3  2  1  0
  4  1  1  0
  5  4  2  0
  6  5  1  0
  6  3  2  0
  7  1  1  0
  8  7  1  0
  9  8  2  0
 10  8  1  0
 11 10  1  0
 12 11  2  0
 13 11  1  0
 14 12  1  0
 15 13  2  0
 16 15  1  0
 16 14  2  0
 17 16  1  0
 18 17  1  0
 19 18  2  0
 20 18  1  0
 21 20  2  0
 22 20  1  0
 23 21  1  0
 24 23  2  0
 24 22  1  0
 25 24  1  0
 26 25  2  0
 27 25  1  0
 28 27  1  0
 29 28  1  0
 30 29  1  0
 31 30  1  0
 32 31  1  0
 33 32  1  0
M  END
>  <SMILES>  (7) 
CCCSCCOC(=O)c1ccc(C(=O)Nc2ccc(NC(=O)Nc3ccccc3)nc2)o1

>  <scaffold>  (7) 
benzene

$$$$

     RDKit          3D

 27 29  0  0  0  0  0  0  0  0999 V2000
   -0.0000    0.0000   -0.0000 C   0  0  0  0  0  0  0  0  0  0  0  0
    0.0000    0.0000    1.3862 C   0  0  0  0  0  0  0  0  0  0  0  0
    1.2042    0.0000    2.0726 C   0  0  0  0  0  0  0  0  0  0  0  0
    1.1990   -0.0589   -0.6931 C   0  0  0  0  0  0  0  0  0  0  0  0
    2.4366   -0.1197   -0.0541 C   0  0  0  0  0  0  0  0  0  0  0  0
    2.4387   -0.0605    1.3387 C   0  0  0  0  0  0  0  0  0  0  0  0
    3.6828   -0.1274   -0.6240 O   0  0  0  0  0  0  0  0  0  0  0  0
    3.8291   -0.5204   -1.9704 C   0  0  0  0  0  0  0  0  0  0  0  0
    3.5423   -2.0138   -2.1182 C   0  0  0  0  0  0  0  0  0  0  0  0
    3.8835   -2.6280   -3.8249 S   0  0  0  0  0  0  0  0  0  0  0  0
    4.2564   -4.2881   -3.4468 C   0  0  0  0  0  0  0  0  0  0  0  0
    4.5061   -5.0331   -4.5220 N   0  0  0  0  0  0  0  0  0  0  0  0
    4.2876   -4.7576   -2.1928 N   0  0  0  0  0  0  0  0  0  0  0  0
    4.8480   -6.2857   -4.3563 N   0  0  0  0  0  0  0  0  0  0  0  0
    4.6313   -6.0175   -2.0262 C   0  0  0  0  0  0  0  0  0  0  0  0
    4.9278   -6.7417   -3.1636 C   0  0  0  0  0  0  0  0  0  0  0  0
    5.3220   -8.4365   -2.8801 S   0  0  0  0  0  0  0  0  0  0  0  0
    6.3498   -8.9180   -4.2423 C   0  0  0  0  0  0  0  0  0  0  0  0
    7.3560   -8.1069   -4.7435 C   0  0  0  0  0  0  0  0  0  0  0  0
    6.2078  -10.1908   -4.7299 C   0  0  0  0  0  0  0  0  0  0  0  0
    8.1618   -8.5444   -5.7724 C   0  0  0  0  0  0  0  0  0  0  0  0
    7.0241  -10.6282   -5.7613 C   0  0  0  0  0  0  0  0  0  0  0  0
    7.9957   -9.8364   -6.2691 C   0  0  0  0  0  0  0  0  0  0  0  0
    8.8833  -10.1713   -7.2471 O   0  0  0  0  0  0  0  0  0  0  0  0
    8.7231  -11.4442   -7.8127 C   0  0  0  0  0  0  0  0  0  0  0  0
    7.4494  -11.6635   -8.6275 C   0  0  0  0  0  0  0  0  0  0  0  0
    6.9552  -12.7300   -8.8753 O   0  0  0  0  0  0  0  0  0  0  0  0
  2  1  2  0
  3  2  1  0
  4  1  1  0
  5  4  2  0
  6  5  1  0
  6  3  2  0
  7  5  1  0
  8  7  1  0
  9  8  1  0
 10  9  1  0
 11 10  1  0
 12 11  2  0
 13 11  1  0
 14 12  1  0
 15 13  2  0
 16 15  1  0
 16 14  2  0
 17 16  1  0
 18 17  1  0
 19 18  2  0
 20 18  1  0
 21 19  1  0
 22 20  2  0
 23 21  2  0
 23 22  1  0
 24 23  1  0
 25 24  1  0
 26 25  1  0
 27 26  2  0
M  END
>  <SMILES>  (8) 
O=CCOc1ccc(Sc2cnc(SCCOc3ccccc3)nn2)cc1

>  <scaffold>  (8) 
benzene

$$$$

     RDKit          3D

 30 33  0  0  0  0  0  0  0  0999 V2000
    0.0000   -0.0000   -0.0000 C   0  0  0  0  0  0  0  0  0  0  0  0
    0.0000   -0.0000    1.3862 C   0  0  0  0  0  0  0  0  0  0  0  0
    1.2042   -0.0000    2.0726 C   0  0  0  0  0  0  0  0  0  0  0  0
    1.1585    0.0000   -0.7465 C   0  0  0  0  0  0  0  0  0  0  0  0
    2.3976   -0.0000   -0.1076 C   0  0  0  0  0  0  0  0  0  0  0  0
    2.3976   -0.0000    1.2865 C   0  0  0  0  0  0  0  0  0  0  0  0
    3.5943   -0.0526   -0.9413 C   0  0  0  0  0  0  0  0  0  0  0  0
    4.7754   -0.0018   -0.2796 N   0  0  0  0  0  0  0  0  0  0  0  0
    3.5308   -0.1533   -2.2300 N   0  0  0  0  0  0  0  0  0  0  0  0
    5.9874    0.0102   -0.9683 C   0  0  0  0  0  0  0  0  0  0  0  0
    4.6808   -0.1499   -2.9753 C   0  0  0  0  0  0  0  0  0  0  0  0
    6.9783    0.1038   -0.2833 O   0  0  0  0  0  0  0  0  0  0  0  0
    5.9707   -0.0939   -2.4072 C   0  0  0  0  0  0  0  0  0  0  0  0
    4.4216   -0.3149   -4.2789 O   0  0  0  0  0  0  0  0  0  0  0  0
    7.0760   -0.1458   -3.1754 F   0  0  0  0  0  0  0  0  0  0  0  0
    5.3159    0.1401   -5.2467 C   0  0  0  0  0  0  0  0  0  0  0  0
    5.9366    1.3772   -5.1707 C   0  0  0  0  0  0  0  0  0  0  0  0
    5.5218   -0.6866   -6.3401 C   0  0  0  0  0  0  0  0  0  0  0  0
    6.7616    1.7973   -6.1598 C   0  0  0  0  0  0  0  0  0  0  0  0
    6.3645   -0.2538   -7.3520 C   0  0  0  0  0  0  0  0  0  0  0  0
    6.9371    0.9975   -7.2881 C   0  0  0  0  0  0  0  0  0  0  0  0
    7.7934    1.4279   -8.2127 F   0  0  0  0  0  0  0  0  0  0  0  0
    6.6334   -1.0480   -8.4161 O   0  0  0  0  0  0  0  0  0  0  0  0
    5.8648   -2.1329   -8.8082 C   0  0  0  0  0  0  0  0  0  0  0  0
    4.4999   -1.9787   -9.0463 C   0  0  0  0  0  0  0  0  0  0  0  0
    6.4457   -3.3759   -9.0555 C   0  0  0  0  0  0  0  0  0  0  0  0
    3.7865   -3.0747   -9.4817 C   0  0  0  0  0  0  0  0  0  0  0  0
    5.7299   -4.4690   -9.4943 C   0  0  0  0  0  0  0  0  0  0  0  0
    4.4056   -4.2967   -9.7405 C   0  0  0  0  0  0  0  0  0  0  0  0
    3.6757   -5.3267  -10.2104 O   0  0  0  0  0  0  0  0  0  0  0  0
  2  1  2  0
  3  2  1  0
  4  1  1  0
  5  4  2  0
  6  5  1  0
  6  3  2  0
  7  5  1  0
  8  7  1  0
  9  7  2  0
 10  8  1  0
 11  9  1  0
 12 10  2  0
 13 11  2  0
 13 10  1  0
 14 11  1  0
 15 13  1  0
 16 14  1  0
 17 16  2  0
 18 16  1  0
 19 17  1  0
 20 18  2  0
 21 20  1  0
 21 19  2  0
 22 21  1  0
 23 20  1  0
 24 23  1  0
 25 24  2  0
 26 24  1  0
 27 25  1  0
 28 26  2  0
 29 27  2  0
 29 28  1  0
 30 29  1  0
M  END
>  <SMILES>  (9) 
O=c1[nH]c(-c2ccccc2)nc(Oc2ccc(F)c(Oc3ccc(O)cc3)c2)c1F

>  <scaffold>  (9) 
benzene

$$$$

     RDKit          3D

 17 18  0  0  0  0  0  0  0  0999 V2000
   -0.0000   -0.0000   -0.0000 C   0  0  0  0  0  0  0  0  0  0  0  0
   -0.0000   -0.0000    1.3862 C   0  0  0  0  0  0  0  0  0  0  0  0
    1.1974    0.0000    2.0687 C   0  0  0  0  0  0  0  0  0  0  0  0
    1.1990   -0.0589   -0.6931 C   0  0  0  0  0  0  0  0  0  0  0  0
    2.4295   -0.1194   -0.0578 C   0  0  0  0  0  0  0  0  0  0  0  0
    2.4960   -0.1226    1.3428 C   0  0  0  0  0  0  0  0  0  0  0  0
   -1.2128    0.0596   -0.7011 N   0  0  0  0  0  0  0  0  0  0  0  0
   -1.4347    0.8366   -1.8273 C   0  0  0  0  0  0  0  0  0  0  0  0
   -2.3763   -0.5623   -0.3604 C   0  0  0  0  0  0  0  0  0  0  0  0
   -2.7139    0.5399   -2.1907 C   0  0  0  0  0  0  0  0  0  0  0  0
   -3.2602   -0.3197   -1.2634 N   0  0  0  0  0  0  0  0  0  0  0  0
   -0.4996    1.6248   -2.3734 O   0  0  0  0  0  0  0  0  0  0  0  0
    3.6703   -0.1317    2.0026 O   0  0  0  0  0  0  0  0  0  0  0  0
    3.6614   -0.1295   -0.7104 O   0  0  0  0  0  0  0  0  0  0  0  0
    3.6572   -0.1974   -2.1189 C   0  0  0  0  0  0  0  0  0  0  0  0
    5.1226   -0.2533   -2.5478 C   0  0  0  0  0  0  0  0  0  0  0  0
    5.2852   -0.5890   -4.0385 C   0  0  0  0  0  0  0  0  0  0  0  0
  2  1  2  0
  3  2  1  0
  4  1  1  0
  5  4  2  0
  6  5  1  0
  6  3  2  0
  7  1  1  0
  8  7  1  0
  9  7  1  0
 10  8  2  0
 11 10  1  0
 11  9  2  0
 12  8  1  0
 13  6  1  0
 14  5  1  0
 15 14  1  0
 16 15  1  0
 17 16  1  0
M  END
>  <SMILES>  (10) 
CCCOc1cc(-n2cncc2O)ccc1O

>  <scaffold>  (10) 
benzene

$$$$

     RDKit          3D

 22 24  0  0  0  0  0  0  0  0999 V2000
    0.0000   -0.0000    0.0000 C   0  0  0  0  0  0  0  0  0  0  0  0
   -0.0000    0.0000    1.3941 C   0  0  0  0  0  0  0  0  0  0  0  0
    1.2223   -0.0000    2.0645 C   0  0  0  0  0  0  0  0  0  0  0  0
    1.1585    0.0000   -0.7465 C   0  0  0  0  0  0  0  0  0  0  0  0
    2.3976    0.0000   -0.1076 C   0  0  0  0  0  0  0  0  0  0  0  0
    2.4648    0.0592    1.2837 C   0  0  0  0  0  0  0  0  0  0  0  0
   -1.2552   -0.0617    2.1197 C   0  0  0  0  0  0  0  0  0  0  0  0
   -2.3953   -0.0617    1.4614 N   0  0  0  0  0  0  0  0  0  0  0  0
   -1.4613   -0.1279    3.5213 C   0  0  0  0  0  0  0  0  0  0  0  0
   -3.3416   -0.1772    2.3913 O   0  0  0  0  0  0  0  0  0  0  0  0
   -2.8276   -0.2213    3.6765 C   0  0  0  0  0  0  0  0  0  0  0  0
    3.5927   -0.0525   -0.7268 O   0  0  0  0  0  0  0  0  0  0  0  0
   -3.6413   -0.3738    4.8482 C   0  0  0  0  0  0  0  0  0  0  0  0
   -4.9970   -0.5080    4.8691 C   0  0  0  0  0  0  0  0  0  0  0  0
   -3.0398   -0.3856    6.0795 N   0  0  0  0  0  0  0  0  0  0  0  0
   -5.6003   -0.5988    6.4912 S   0  0  0  0  0  0  0  0  0  0  0  0
   -3.9212   -0.4796    7.0121 C   0  0  0  0  0  0  0  0  0  0  0  0
    3.5921   -0.1121   -2.1276 C   0  0  0  0  0  0  0  0  0  0  0  0
   -3.5823   -0.4576    8.3317 N   0  0  0  0  0  0  0  0  0  0  0  0
   -4.4786   -0.5046    9.3464 C   0  0  0  0  0  0  0  0  0  0  0  0
   -5.6744   -0.5712    9.1869 O   0  0  0  0  0  0  0  0  0  0  0  0
   -3.8080   -0.4027   10.7351 C   0  0  0  0  0  0  0  0  0  0  0  0
  2  1  2  0
  3  2  1  0
  4  1  1  0
  5  4  2  0
  6  5  1  0
  6  3  2  0
  7  2  1  0
  8  7  2  0
  9  7  1  0
 10  8  1  0
 11 10  1  0
 11  9  2  0
 12  5  1  0
 13 11  1  0
 14 13  2  0
 15 13  1  0
 16 14  1  0
 17 16  1  0
 17 15  2  0
 18 12  1  0
 19 17  1  0
 20 19  1  0
 21 20  2  0
 22 20  1  0
M  END
>  <SMILES>  (11) 
COc1ccc(-c2cc(-c3csc(NC(C)=O)n3)on2)cc1

>  <scaffold>  (11) 
benzene

$$$$

     RDKit          3D

 34 36  0  0  0  0  0  0  0  0999 V2000
   -0.0000    0.0000    0.0000 C   0  0  0  0  0  0  0  0  0  0  0  0
    0.0000   -0.0000    1.4021 C   0  0  0  0  0  0  0  0  0  0  0  0
    1.2223    0.0000    2.0725 C   0  0  0  0  0  0  0  0  0  0  0  0
    1.1585   -0.0000   -0.7465 C   0  0  0  0  0  0  0  0  0  0  0  0
    2.3237    0.0000    0.0043 C   0  0  0  0  0  0  0  0  0  0  0  0
    2.4570   -0.0000    1.3840 C   0  0  0  0  0  0  0  0  0  0  0  0
   -1.1652   -0.0000    2.1530 N   0  0  0  0  0  0  0  0  0  0  0  0
    3.8469    0.0640   -0.9011 S   0  0  2  0  0  6  0  0  0  0  0  0
    3.7452   -0.2861   -2.2972 O   0  0  0  0  0  0  0  0  0  0  0  0
    4.8551   -0.5652   -0.0829 O   0  0  0  0  0  0  0  0  0  0  0  0
    4.2118    1.7953   -0.7854 C   0  0  0  0  0  0  0  0  0  0  0  0
    5.1656    2.2245    0.0757 C   0  0  0  0  0  0  0  0  0  0  0  0
    3.5134    2.7403   -1.5503 C   0  0  0  0  0  0  0  0  0  0  0  0
    5.4362    3.5039    0.2285 N   0  0  0  0  0  0  0  0  0  0  0  0
    3.7999    4.0870   -1.3894 C   0  0  1  0  0  0  0  0  0  0  0  0
    4.7843    4.4204   -0.4556 C   0  0  0  0  0  0  0  0  0  0  0  0
    5.0042    5.7335   -0.4244 O   0  0  0  0  0  0  0  0  0  0  0  0
    6.0632    6.0473    0.4653 C   0  0  0  0  0  0  0  0  0  0  0  0
    3.0270    5.2750   -2.3344 Cl  0  0  0  0  0  0  0  0  0  0  0  0
    7.4422    5.7654   -0.0587 C   0  0  0  0  0  0  0  0  0  0  0  0
    7.6378    5.5633   -1.4241 C   0  0  0  0  0  0  0  0  0  0  0  0
    8.5415    5.7235    0.7977 C   0  0  0  0  0  0  0  0  0  0  0  0
    8.9128    5.3589   -1.8592 C   0  0  0  0  0  0  0  0  0  0  0  0
    9.8090    5.5211    0.3641 C   0  0  0  0  0  0  0  0  0  0  0  0
   10.0483    5.3359   -1.0370 C   0  0  0  0  0  0  0  0  0  0  0  0
   11.2588    5.1767   -1.5876 O   0  0  0  0  0  0  0  0  0  0  0  0
   12.4671    5.0822   -0.8667 C   0  0  0  0  0  0  0  0  0  0  0  0
   12.5903    3.6957   -0.1951 C   0  0  0  0  0  0  0  0  0  0  0  0
   13.8468    3.3997    0.4494 N   0  0  0  0  0  0  0  0  0  0  0  0
   14.9639    3.3918   -0.4637 C   0  0  0  0  0  0  0  0  0  0  0  0
   14.0869    4.2487    1.6015 C   0  0  0  0  0  0  0  0  0  0  0  0
   15.3093    3.7454    2.3675 C   0  0  0  0  0  0  0  0  0  0  0  0
   15.5744    4.5797    3.6304 C   0  0  0  0  0  0  0  0  0  0  0  0
   16.7704    4.0037    4.3868 C   0  0  0  0  0  0  0  0  0  0  0  0
  2  1  1  0
  3  2  1  0
  4  1  2  0
  5  4  1  0
  6  5  1  0
  6  3  2  0
  7  2  2  0
  8  5  2  0
  9  8  2  0
  8 10  1  1
 11  8  1  0
 12 11  1  0
 13 11  2  0
 14 12  2  0
 15 13  1  0
 16 15  1  0
 16 14  1  0
 17 16  2  0
 18 17  1  0
 15 19  1  6
 20 18  1  0
 21 20  2  0
 22 20  1  0
 23 21  1  0
 24 22  2  0
 25 24  1  0
 25 23  2  0
 26 25  1  0
 27 26  1  0
 28 27  1  0
 29 28  1  0
 30 29  1  0
 31 29  1  0
 32 31  1  0
 33 32  1  0
 34 33  1  0
M  CHG  2  10  -1  17   1
M  END
>  <SMILES>  (12) 
CCCCN(C)CCOc1ccc(C[O+]=C2N=CC(S(=O)([O-])=C3C=CC(=N)C=C3)=CC2Cl)cc1

>  <scaffold>  (12) 
benzene

$$$$

     RDKit          3D

 29 30  0  0  0  0  0  0  0  0999 V2000
    0.0000   -0.0000   -0.0000 C   0  0  0  0  0  0  0  0  0  0  0  0
    0.0000   -0.0000    1.3941 C   0  0  0  0  0  0  0  0  0  0  0  0
    1.2111    0.0000    2.0845 C   0  0  0  0  0  0  0  0  0  0  0  0
    1.1585   -0.0000   -0.7465 C   0  0  0  0  0  0  0  0  0  0  0  0
    2.3237   -0.0000    0.0043 C   0  0  0  0  0  0  0  0  0  0  0  0
    2.4570    0.0000    1.3840 C   0  0  0  0  0  0  0  0  0  0  0  0
   -1.2320   -0.0000    2.0294 N   0  0  0  0  0  0  0  0  0  0  0  0
    3.9646    0.0689   -0.9711 Br  0  0  0  0  0  0  0  0  0  0  0  0
   -1.4674    0.1573    3.3945 C   0  0  0  0  0  0  0  0  0  0  0  0
   -0.6298    0.3201    4.2499 O   0  0  0  0  0  0  0  0  0  0  0  0
   -2.8036    0.0464    3.6368 N   0  0  0  0  0  0  0  0  0  0  0  0
   -3.2589    0.2367    4.9927 C   0  0  0  0  0  0  0  0  0  0  0  0
   -4.1631    1.4029    5.0363 C   0  0  0  0  0  0  0  0  0  0  0  0
   -3.9886    2.4692    5.7485 N   0  0  0  0  0  0  0  0  0  0  0  0
   -5.3204    1.4163    4.3472 O   0  0  0  0  0  0  0  0  0  0  0  0
   -5.0260    3.2822    5.4350 N   0  0  0  0  0  0  0  0  0  0  0  0
   -5.7724    2.6607    4.6344 C   0  0  0  0  0  0  0  0  0  0  0  0
   -7.0384    3.1115    4.0031 C   0  0  0  0  0  0  0  0  0  0  0  0
   -7.8031    4.1324    4.8599 C   0  0  0  0  0  0  0  0  0  0  0  0
   -8.3021    3.4744    6.1350 C   0  0  0  0  0  0  0  0  0  0  0  0
   -9.2937    2.7847    6.1620 O   0  0  0  0  0  0  0  0  0  0  0  0
   -7.5334    3.7714    7.1521 O   0  0  0  0  0  0  0  0  0  0  0  0
   -7.8069    3.1987    8.4386 C   0  0  0  0  0  0  0  0  0  0  0  0
   -8.8628    4.0387    9.1554 C   0  0  0  0  0  0  0  0  0  0  0  0
   -9.0761    3.4243   10.5283 C   0  0  0  0  0  0  0  0  0  0  0  0
  -10.2260    4.1402   11.2352 C   0  0  0  0  0  0  0  0  0  0  0  0
  -10.3632    3.5237   12.6264 C   0  0  0  0  0  0  0  0  0  0  0  0
  -11.5391    4.1700   13.3570 C   0  0  0  0  0  0  0  0  0  0  0  0
  -11.6668    3.4832   14.7158 C   0  0  0  0  0  0  0  0  0  0  0  0
  2  1  2  0
  3  2  1  0
  4  1  1  0
  5  4  2  0
  6  5  1  0
  6  3  2  0
  7  2  1  0
  8  5  1  0
  9  7  1  0
 10  9  2  0
 11  9  1  0
 12 11  1  0
 13 12  1  0
 14 13  2  0
 15 13  1  0
 16 14  1  0
 17 15  1  0
 17 16  2  0
 18 17  1  0
 19 18  1  0
 20 19  1  0
 21 20  2  0
 22 20  1  0
 23 22  1  0
 24 23  1  0
 25 24  1  0
 26 25  1  0
 27 26  1  0
 28 27  1  0
 29 28  1  0
M  END
>  <SMILES>  (13) 
CCCCCCCOC(=O)CCc1nnc(CNC(=O)Nc2ccc(Br)cc2)o1

>  <scaffold>  (13) 
benzene

$$$$

     RDKit          3D

 26 27  0  0  0  0  0  0  0  0999 V2000
    0.0000   -0.0000    0.0000 C   0  0  0  0  0  0  0  0  0  0  0  0
    0.0000    0.0000    1.3941 C   0  0  0  0  0  0  0  0  0  0  0  0
    1.1860    0.0000    2.0963 C   0  0  0  0  0  0  0  0  0  0  0  0
    1.2391   -0.0000   -0.6390 C   0  0  0  0  0  0  0  0  0  0  0  0
    2.3976   -0.0000    0.1076 C   0  0  0  0  0  0  0  0  0  0  0  0
    2.3976   -0.0000    1.4937 C   0  0  0  0  0  0  0  0  0  0  0  0
   -1.2128    0.0000   -0.7815 C   0  0  0  0  0  0  0  0  0  0  0  0
   -1.2598   -0.0470   -2.0814 N   0  0  0  0  0  0  0  0  0  0  0  0
   -2.4220    0.0594   -0.2267 O   0  0  0  0  0  0  0  0  0  0  0  0
   -2.6113    0.0288   -2.3798 C   0  0  0  0  0  0  0  0  0  0  0  0
   -3.2910    0.0915   -1.2756 C   0  0  0  0  0  0  0  0  0  0  0  0
   -3.0271    0.0598   -3.7959 C   0  0  0  0  0  0  0  0  0  0  0  0
   -4.1985    0.1697   -4.0997 O   0  0  0  0  0  0  0  0  0  0  0  0
   -2.0229   -0.0440   -4.6994 N   0  0  0  0  0  0  0  0  0  0  0  0
   -5.0015    0.2426   -0.8760 S   0  0  0  0  0  6  0  0  0  0  0  0
   -5.7728   -0.2164   -2.0056 O   0  0  0  0  0  0  0  0  0  0  0  0
   -5.2373   -0.3827    0.3749 O   0  0  0  0  0  0  0  0  0  0  0  0
   -5.1680    1.9351   -0.7784 N   0  0  0  0  0  0  0  0  0  0  0  0
   -6.0259    2.5175   -1.7698 C   0  0  0  0  0  0  0  0  0  0  0  0
   -7.5087    2.3526   -1.4405 C   0  0  0  0  0  0  0  0  0  0  0  0
   -8.3691    2.5735   -2.2288 O   0  0  0  0  0  0  0  0  0  0  0  0
   -7.7460    1.9243   -0.2021 O   0  0  0  0  0  0  0  0  0  0  0  0
   -9.0853    1.7838    0.2429 C   0  0  0  0  0  0  0  0  0  0  0  0
   -9.6573    3.1349    0.6691 C   0  0  0  0  0  0  0  0  0  0  0  0
  -11.1269    3.0460    1.1089 C   0  0  0  0  0  0  0  0  0  0  0  0
  -11.2828    2.1589    2.3430 C   0  0  0  0  0  0  0  0  0  0  0  0
  2  1  2  0
  3  2  1  0
  4  1  1  0
  5  4  2  0
  6  5  1  0
  6  3  2  0
  7  1  1  0
  8  7  2  0
  9  7  1  0
 10  8  1  0
 11 10  2  0
 11  9  1  0
 12 10  1  0
 13 12  2  0
 14 12  1  0
 15 11  1  0
 16 15  2  0
 17 15  2  0
 18 15  1  0
 19 18  1  0
 20 19  1  0
 21 20  2  0
 22 20  1  0
 23 22  1  0
 24 23  1  0
 25 24  1  0
 26 25  1  0
M  END
>  <SMILES>  (14) 
CCCCOC(=O)CNS(=O)(=O)c1oc(-c2ccccc2)nc1C(N)=O

>  <scaffold>  (14) 
benzene

$$$$

     RDKit          3D

 20 21  0  0  0  0  0  0  0  0999 V2000
    0.0000   -0.0000    0.0000 C   0  0  0  0  0  0  0  0  0  0  0  0
   -0.0000    0.0000    1.3862 C   0  0  0  0  0  0  0  0  0  0  0  0
    1.2042   -0.0000    2.0726 C   0  0  0  0  0  0  0  0  0  0  0  0
    1.1922   -0.0586   -0.6891 C   0  0  0  0  0  0  0  0  0  0  0  0
    2.4297   -0.1194   -0.0502 C   0  0  0  0  0  0  0  0  0  0  0  0
    2.3618   -0.1160    1.3423 C   0  0  0  0  0  0  0  0  0  0  0  0
    3.6358   -0.2281   -0.6916 O   0  0  0  0  0  0  0  0  0  0  0  0
    3.6326   -0.2824   -2.0847 C   0  0  0  0  0  0  0  0  0  0  0  0
    3.2925   -1.2883   -2.6611 O   0  0  0  0  0  0  0  0  0  0  0  0
    4.1735    0.7978   -2.6979 N   0  0  0  0  0  0  0  0  0  0  0  0
    4.6650    1.9587   -2.0305 C   0  0  0  0  0  0  0  0  0  0  0  0
    3.5604    2.9196   -1.5935 C   0  0  0  0  0  0  0  0  0  0  0  0
    2.3997    2.7050   -1.6275 O   0  0  0  0  0  0  0  0  0  0  0  0
    4.0762    4.0666   -1.1558 O   0  0  0  0  0  0  0  0  0  0  0  0
    3.3475    5.1605   -0.7413 C   0  0  0  0  0  0  0  0  0  0  0  0
    4.0101    6.1078    0.0378 C   0  0  0  0  0  0  0  0  0  0  0  0
    2.0296    5.4081   -1.0599 C   0  0  0  0  0  0  0  0  0  0  0  0
    3.4076    7.2623    0.4647 C   0  0  0  0  0  0  0  0  0  0  0  0
    1.4204    6.5745   -0.6244 C   0  0  0  0  0  0  0  0  0  0  0  0
    2.0824    7.5292    0.1239 C   0  0  0  0  0  0  0  0  0  0  0  0
  2  1  2  0
  3  2  1  0
  4  1  1  0
  5  4  2  0
  6  5  1  0
  6  3  2  0
  7  5  1  0
  8  7  1  0
  9  8  2  0
 10  8  1  0
 11 10  1  0
 12 11  1  0
 13 12  2  0
 14 12  1  0
 15 14  1  0
 16 15  2  0
 17 15  1  0
 18 16  1  0
 19 17  2  0
 20 19  1  0
 20 18  2  0
M  END
>  <SMILES>  (15) 
O=C(CNC(=O)Oc1ccccc1)Oc1ccccc1

>  <scaffold>  (15) 
benzene

$$$$

     RDKit          3D

 35 37  0  0  0  0  0  0  0  0999 V2000
   -0.0000    0.0000   -0.0000 C   0  0  0  0  0  0  0  0  0  0  0  0
   -0.0000   -0.0000    1.3704 C   0  0  0  0  0  0  0  0  0  0  0  0
    1.1878    0.0000    2.1003 C   0  0  0  0  0  0  0  0  0  0  0  0
    1.2462   -0.0000   -0.6426 C   0  0  0  0  0  0  0  0  0  0  0  0
    2.4114   -0.0000    0.1082 C   0  0  0  0  0  0  0  0  0  0  0  0
    2.4114    0.0000    1.5023 C   0  0  0  0  0  0  0  0  0  0  0  0
   -1.6880   -0.0000    2.2409 Br  0  0  0  0  0  0  0  0  0  0  0  0
    1.1179    0.0531   -1.9981 O   0  0  0  0  0  0  0  0  0  0  0  0
    2.3116   -0.3007   -2.6940 C   0  0  0  0  0  0  0  0  0  0  0  0
    1.8089   -0.5105   -4.0936 C   0  0  0  0  0  0  0  0  0  0  0  0
    2.3680    0.1824   -5.0430 N   0  0  0  0  0  0  0  0  0  0  0  0
    0.8563   -1.4924   -4.4975 C   0  0  0  0  0  0  0  0  0  0  0  0
    1.9890   -0.0049   -6.2978 N   0  0  0  0  0  0  0  0  0  0  0  0
    0.5008   -1.6264   -5.8724 C   0  0  0  0  0  0  0  0  0  0  0  0
    0.2727   -2.3954   -3.5851 C   0  0  0  0  0  0  0  0  0  0  0  0
    1.0863   -0.8449   -6.6386 C   0  0  0  0  0  0  0  0  0  0  0  0
   -0.3871   -2.5951   -6.4058 C   0  0  0  0  0  0  0  0  0  0  0  0
   -0.6849   -3.2724   -4.0925 C   0  0  0  0  0  0  0  0  0  0  0  0
   -0.8894   -3.4255   -5.4160 C   0  0  0  0  0  0  0  0  0  0  0  0
   -0.6549   -2.7137   -7.7127 O   0  0  0  0  0  0  0  0  0  0  0  0
   -1.5664   -3.6254   -8.2843 C   0  0  0  0  0  0  0  0  0  0  0  0
   -3.0026   -3.1698   -8.0314 C   0  0  0  0  0  0  0  0  0  0  0  0
   -4.0317   -4.1542   -8.5848 C   0  0  0  0  0  0  0  0  0  0  0  0
   -4.0940   -4.1433  -10.1114 C   0  0  0  0  0  0  0  0  0  0  0  0
   -5.1733   -5.1024  -10.6109 C   0  0  0  0  0  0  0  0  0  0  0  0
   -5.3133   -5.0878  -12.1323 C   0  0  0  0  0  0  0  0  0  0  0  0
   -6.4180   -5.9905  -12.6793 C   0  0  0  0  0  0  0  0  0  0  0  0
   -6.5522   -5.8982  -14.1984 C   0  0  0  0  0  0  0  0  0  0  0  0
   -7.6078   -6.8236  -14.8016 C   0  0  0  0  0  0  0  0  0  0  0  0
   -7.7400   -6.6537  -16.3142 C   0  0  0  0  0  0  0  0  0  0  0  0
   -8.8221   -7.5185  -16.9588 C   0  0  0  0  0  0  0  0  0  0  0  0
   -8.9502   -7.2715  -18.4611 C   0  0  0  0  0  0  0  0  0  0  0  0
  -10.0047   -8.1972  -19.0656 C   0  0  0  0  0  0  0  0  0  0  0  0
  -10.1326   -7.8735  -20.5533 C   0  0  0  0  0  0  0  0  0  0  0  0
  -11.2171   -8.7376  -21.1949 C   0  0  0  0  0  0  0  0  0  0  0  0
  2  1  2  0
  3  2  1  0
  4  1  1  0
  5  4  2  0
  6  5  1  0
  6  3  2  0
  7  2  1  0
  8  4  1  0
  9  8  1  0
 10  9  1  0
 11 10  2  0
 12 10  1  0
 13 11  1  0
 14 12  2  0
 15 12  1  0
 16 14  1  0
 16 13  2  0
 17 14  1  0
 18 15  2  0
 19 17  2  0
 19 18  1  0
 20 17  1  0
 21 20  1  0
 22 21  1  0
 23 22  1  0
 24 23  1  0
 25 24  1  0
 26 25  1  0
 27 26  1  0
 28 27  1  0
 29 28  1  0
 30 29  1  0
 31 30  1  0
 32 31  1  0
 33 32  1  0
 34 33  1  0
 35 34  1  0
M  END
>  <SMILES>  (16) 
CCCCCCCCCCCCCCCOc1cccc2c(COc3cccc(Br)c3)nncc12

>  <scaffold>  (16) 
benzene

$$$$

     RDKit          3D

 14 15  0  0  0  0  0  0  0  0999 V2000
   -0.0000    0.0000    0.0000 C   0  0  0  0  0  0  0  0  0  0  0  0
   -0.0000   -0.0000    1.3862 C   0  0  0  0  0  0  0  0  0  0  0  0
    1.2042    0.0000    2.0726 C   0  0  0  0  0  0  0  0  0  0  0  0
    1.1585    0.0000   -0.7465 C   0  0  0  0  0  0  0  0  0  0  0  0
    2.3976    0.0000   -0.1076 C   0  0  0  0  0  0  0  0  0  0  0  0
    2.3976    0.0000    1.2865 C   0  0  0  0  0  0  0  0  0  0  0  0
    3.5277    0.0497   -0.8949 N   0  0  0  0  0  0  0  0  0  0  0  0
    4.7326    0.0037   -0.3298 N   0  0  0  0  0  0  0  0  0  0  0  0
    5.7541    0.0986   -1.0942 C   0  0  0  0  0  0  0  0  0  0  0  0
    7.0644    0.1058   -0.5304 C   0  0  0  0  0  0  0  0  0  0  0  0
    8.1409    0.2489   -1.2746 N   0  0  0  0  0  0  0  0  0  0  0  0
    7.4175    0.0209    0.7910 N   0  0  0  0  0  0  0  0  0  0  0  0
    9.1591    0.2576   -0.3927 C   0  0  0  0  0  0  0  0  0  0  0  0
    8.7823    0.1207    0.8639 C   0  0  0  0  0  0  0  0  0  0  0  0
  2  1  2  0
  3  2  1  0
  4  1  1  0
  5  4  2  0
  6  5  1  0
  6  3  2  0
  7  5  1  0
  8  7  1  0
  9  8  2  0
 10  9  1  0
 11 10  2  0
 12 10  1  0
 13 11  1  0
 14 13  2  0
 14 12  1  0
M  END
>  <SMILES>  (17) 
C(=NNc1ccccc1)c1ncc[nH]1

>  <scaffold>  (17) 
benzene

$$$$

     RDKit          3D

 28 29  0  0  0  0  0  0  0  0999 V2000
    0.0000   -0.0000   -0.0000 C   0  0  0  0  0  0  0  0  0  0  0  0
    0.0000   -0.0000    1.3941 C   0  0  0  0  0  0  0  0  0  0  0  0
    1.2111    0.0000    2.0845 C   0  0  0  0  0  0  0  0  0  0  0  0
    1.1990    0.0589   -0.6931 C   0  0  0  0  0  0  0  0  0  0  0  0
    2.3926    0.0589   -0.0040 C   0  0  0  0  0  0  0  0  0  0  0  0
    2.4605    0.0018    1.3794 C   0  0  0  0  0  0  0  0  0  0  0  0
   -1.1719    0.0000    2.1493 N   0  0  0  0  0  0  0  0  0  0  0  0
   -2.4501    0.2543    1.7518 C   0  0  0  0  0  0  0  0  0  0  0  0
   -2.8180    0.4795    0.6233 O   0  0  0  0  0  0  0  0  0  0  0  0
   -3.3774    0.2246    2.7604 N   0  0  0  0  0  0  0  0  0  0  0  0
   -3.1345   -0.3198    4.0206 N   0  0  0  0  0  0  0  0  0  0  0  0
   -3.5898   -1.7186    4.1459 C   0  0  0  0  0  0  0  0  0  0  0  0
   -3.2884   -2.0944    5.5958 C   0  0  0  0  0  0  0  0  0  0  0  0
   -2.8320   -2.6312    3.1830 C   0  0  0  0  0  0  0  0  0  0  0  0
   -5.0882   -1.8577    3.8817 C   0  0  0  0  0  0  0  0  0  0  0  0
   -5.5542   -2.1193    2.8058 O   0  0  0  0  0  0  0  0  0  0  0  0
   -5.7736   -1.4795    4.9590 O   0  0  0  0  0  0  0  0  0  0  0  0
   -7.1898   -1.6159    4.8567 C   0  0  0  0  0  0  0  0  0  0  0  0
   -7.8043   -0.7780    5.9411 C   0  0  0  0  0  0  0  0  0  0  0  0
   -7.4746    0.5716    6.0570 C   0  0  0  0  0  0  0  0  0  0  0  0
   -8.6270   -1.3523    6.8860 C   0  0  0  0  0  0  0  0  0  0  0  0
   -7.9748    1.3673    7.0651 C   0  0  0  0  0  0  0  0  0  0  0  0
   -9.1341   -0.5435    7.9020 C   0  0  0  0  0  0  0  0  0  0  0  0
   -8.8428    0.8373    8.0187 C   0  0  0  0  0  0  0  0  0  0  0  0
   -9.2279    1.7072    8.9941 O   0  0  0  0  0  0  0  0  0  0  0  0
  -10.0612    1.2054   10.0039 C   0  0  0  0  0  0  0  0  0  0  0  0
   -9.4342    0.1561   10.9205 C   0  0  0  0  0  0  0  0  0  0  0  0
  -10.1119   -0.5746   11.5789 O   0  0  0  0  0  0  0  0  0  0  0  0
  2  1  2  0
  3  2  1  0
  4  1  1  0
  5  4  2  0
  6  5  1  0
  6  3  2  0
  7  2  1  0
  8  7  1  0
  9  8  2  0
 10  8  1  0
 11 10  1  0
 12 11  1  0
 13 12  1  0
 14 12  1  0
 15 12  1  0
 16 15  2  0
 17 15  1  0
 18 17  1  0
 19 18  1  0
 20 19  2  0
 21 19  1  0
 22 20  1  0
 23 21  2  0
 24 23  1  0
 24 22  2  0
 25 24  1  0
 26 25  1  0
 27 26  1  0
 28 27  2  0
M  END
>  <SMILES>  (18) 
CC(C)(NNC(=O)Nc1ccccc1)C(=O)OCc1ccc(OCC=O)cc1

>  <scaffold>  (18) 
benzene

$$$$

     RDKit          3D

 16 17  0  0  0  0  0  0  0  0999 V2000
    0.0000   -0.0000    0.0000 C   0  0  0  0  0  0  0  0  0  0  0  0
   -0.0000   -0.0000    1.4021 C   0  0  0  0  0  0  0  0  0  0  0  0
    1.2223    0.0000    2.0725 C   0  0  0  0  0  0  0  0  0  0  0  0
    1.1922   -0.0586   -0.6891 C   0  0  0  0  0  0  0  0  0  0  0  0
    2.4368   -0.1197   -0.0465 C   0  0  0  0  0  0  0  0  0  0  0  0
    2.4390   -0.0602    1.3544 C   0  0  0  0  0  0  0  0  0  0  0  0
    3.5869   -0.2254   -0.7694 N   0  0  0  0  0  0  0  0  0  0  0  0
   -1.1652   -0.0000    2.1530 N   0  0  0  0  0  0  0  0  0  0  0  0
   -2.4337   -0.0623    1.7039 C   0  0  0  0  0  0  0  0  0  0  0  0
   -2.8435   -0.1992    0.4603 N   0  0  0  0  0  0  0  0  0  0  0  0
   -3.5492    0.0007    2.5775 C   0  0  0  0  0  0  0  0  0  0  0  0
   -4.2041   -0.2660    0.4866 O   0  0  0  0  0  0  0  0  0  0  0  0
   -4.5895   -0.1506    1.7108 C   0  0  0  0  0  0  0  0  0  0  0  0
   -6.0181   -0.1051    2.0804 C   0  0  0  0  0  0  0  0  0  0  0  0
   -6.4457    0.1267    3.1863 O   0  0  0  0  0  0  0  0  0  0  0  0
   -6.7452   -0.3498    0.9543 N   0  0  0  0  0  0  0  0  0  0  0  0
  2  1  2  0
  3  2  1  0
  4  1  1  0
  5  4  2  0
  6  5  1  0
  6  3  2  0
  7  5  1  0
  8  2  1  0
  9  8  1  0
 10  9  2  0
 11  9  1  0
 12 10  1  0
 13 12  1  0
 13 11  2  0
 14 13  1  0
 15 14  2  0
 16 14  1  0
M  END
>  <SMILES>  (19) 
NC(=O)c1cc(Nc2ccc(N)cc2)no1

>  <scaffold>  (19) 
benzene

$$$$

     RDKit          3D

 27 29  0  0  0  0  0  0  0  0999 V2000
    0.0000   -0.0000   -0.0000 C   0  0  0  0  0  0  0  0  0  0  0  0
    0.0000    0.0000    1.3941 C   0  0  0  0  0  0  0  0  0  0  0  0
    1.1928    0.0000    2.1003 C   0  0  0  0  0  0  0  0  0  0  0  0
    1.2059    0.0592   -0.6971 C   0  0  0  0  0  0  0  0  0  0  0  0
    2.3995    0.0592   -0.0079 C   0  0  0  0  0  0  0  0  0  0  0  0
    2.4024   -0.0597    1.3891 C   0  0  0  0  0  0  0  0  0  0  0  0
   -1.1719    0.0000   -0.7551 N   0  0  0  0  0  0  0  0  0  0  0  0
    3.6570   -0.1005    1.9582 O   0  0  0  0  0  0  0  0  0  0  0  0
   -2.4677   -0.0000   -0.3600 C   0  0  0  0  0  0  0  0  0  0  0  0
   -2.8987    0.0000    0.7761 O   0  0  0  0  0  0  0  0  0  0  0  0
   -3.4270   -0.0593   -1.5141 C   0  0  0  0  0  0  0  0  0  0  0  0
   -2.9394   -0.1033   -2.7362 N   0  0  0  0  0  0  0  0  0  0  0  0
   -4.8041   -0.1231   -1.3064 C   0  0  0  0  0  0  0  0  0  0  0  0
   -3.7513   -0.2046   -3.7869 C   0  0  0  0  0  0  0  0  0  0  0  0
   -5.6426   -0.2257   -2.3954 C   0  0  0  0  0  0  0  0  0  0  0  0
   -5.1371   -0.2683   -3.6492 C   0  0  0  0  0  0  0  0  0  0  0  0
   -3.0768   -0.1825   -4.9527 O   0  0  0  0  0  0  0  0  0  0  0  0
    3.7108   -0.2694    3.3491 C   0  0  0  0  0  0  0  0  0  0  0  0
   -3.7174   -0.4344   -6.1834 C   0  0  0  0  0  0  0  0  0  0  0  0
   -4.2630   -1.8280   -6.3087 C   0  0  0  0  0  0  0  0  0  0  0  0
   -5.2314   -2.0959   -7.2635 C   0  0  0  0  0  0  0  0  0  0  0  0
   -3.8240   -2.8728   -5.5382 C   0  0  0  0  0  0  0  0  0  0  0  0
   -5.7255   -3.3692   -7.4483 C   0  0  0  0  0  0  0  0  0  0  0  0
   -4.3257   -4.1600   -5.7252 C   0  0  0  0  0  0  0  0  0  0  0  0
   -5.2708   -4.4408   -6.6812 C   0  0  0  0  0  0  0  0  0  0  0  0
   -5.7957   -5.6593   -6.9919 O   0  0  0  0  0  0  0  0  0  0  0  0
   -5.3310   -6.7748   -6.2808 C   0  0  0  0  0  0  0  0  0  0  0  0
  2  1  2  0
  3  2  1  0
  4  1  1  0
  5  4  2  0
  6  5  1  0
  6  3  2  0
  7  1  1  0
  8  6  1  0
  9  7  1  0
 10  9  2  0
 11  9  1  0
 12 11  2  0
 13 11  1  0
 14 12  1  0
 15 13  2  0
 16 15  1  0
 16 14  2  0
 17 14  1  0
 18  8  1  0
 19 17  1  0
 20 19  1  0
 21 20  2  0
 22 20  1  0
 23 21  1  0
 24 22  2  0
 25 23  2  0
 25 24  1  0
 26 25  1  0
 27 26  1  0
M  END
>  <SMILES>  (20) 
COc1ccc(COc2cccc(C(=O)Nc3ccc(OC)cc3)n2)cc1

>  <scaffold>  (20) 
benzene

$$$$

     RDKit          3D

 15 16  0  0  0  0  0  0  0  0999 V2000
    0.0000   -0.0000    0.0000 C   0  0  0  0  0  0  0  0  0  0  0  0
    0.0000    0.0000    1.3862 C   0  0  0  0  0  0  0  0  0  0  0  0
    1.2181    0.0000    2.0805 C   0  0  0  0  0  0  0  0  0  0  0  0
    1.1990   -0.0589   -0.6931 C   0  0  0  0  0  0  0  0  0  0  0  0
    2.4295   -0.1194   -0.0578 C   0  0  0  0  0  0  0  0  0  0  0  0
    2.4317   -0.0605    1.3271 C   0  0  0  0  0  0  0  0  0  0  0  0
   -1.1453    0.0000    2.1242 O   0  0  0  0  0  0  0  0  0  0  0  0
    3.7044   -0.2365   -0.8592 C   0  0  0  0  0  0  0  0  0  0  0  0
   -2.3844    0.0000    1.4852 C   0  0  0  0  0  0  0  0  0  0  0  0
    3.7149   -1.4859   -1.6771 C   0  0  0  0  0  0  0  0  0  0  0  0
    3.2901   -1.6748   -2.9745 C   0  0  0  0  0  0  0  0  0  0  0  0
    4.0868   -2.6661   -1.1256 N   0  0  0  0  0  0  0  0  0  0  0  0
    3.4687   -3.0100   -3.2263 N   0  0  0  0  0  0  0  0  0  0  0  0
    3.9468   -3.5450   -2.0447 C   0  0  0  0  0  0  0  0  0  0  0  0
    3.2399   -3.7391   -4.4501 C   0  0  0  0  0  0  0  0  0  0  0  0
  2  1  2  0
  3  2  1  0
  4  1  1  0
  5  4  2  0
  6  5  1  0
  6  3  2  0
  7  2  1  0
  8  5  1  0
  9  7  1  0
 10  8  1  0
 11 10  2  0
 12 10  1  0
 13 11  1  0
 14 13  1  0
 14 12  2  0
 15 13  1  0
M  END
>  <SMILES>  (21) 
COc1ccc(Cc2cn(C)cn2)cc1

>  <scaffold>  (21) 
benzene

$$$$

     RDKit          3D

 30 32  0  0  0  0  0  0  0  0999 V2000
   -0.0000    0.0000    0.0000 C   0  0  0  0  0  0  0  0  0  0  0  0
   -0.0000    0.0000    1.3862 C   0  0  0  0  0  0  0  0  0  0  0  0
    1.2042    0.0000    2.0726 C   0  0  0  0  0  0  0  0  0  0  0  0
    1.1922    0.0586   -0.6891 C   0  0  0  0  0  0  0  0  0  0  0  0
    2.4297    0.1194   -0.0502 C   0  0  0  0  0  0  0  0  0  0  0  0
    2.4319    0.0602    1.3427 C   0  0  0  0  0  0  0  0  0  0  0  0
    3.7290    0.2365   -0.7412 C   0  0  0  0  0  0  0  0  0  0  0  0
    4.7800    0.0440   -0.1626 O   0  0  0  0  0  0  0  0  0  0  0  0
    3.6248    0.5704   -2.0662 N   0  0  0  0  0  0  0  0  0  0  0  0
    4.6331    0.7030   -2.9964 C   0  0  0  0  0  0  0  0  0  0  0  0
    4.2184    0.8922   -4.2639 N   0  0  0  0  0  0  0  0  0  0  0  0
    5.9888    0.5890   -2.7753 C   0  0  0  0  0  0  0  0  0  0  0  0
    5.0918    0.9810   -5.2450 C   0  0  0  0  0  0  0  0  0  0  0  0
    6.9114    0.6924   -3.8153 C   0  0  0  0  0  0  0  0  0  0  0  0
    6.4503    0.8872   -5.0322 C   0  0  0  0  0  0  0  0  0  0  0  0
    8.2159    0.5273   -3.5609 O   0  0  0  0  0  0  0  0  0  0  0  0
    9.2600    0.6624   -4.5234 C   0  0  0  0  0  0  0  0  0  0  0  0
    9.5068    2.1278   -4.8389 C   0  0  0  0  0  0  0  0  0  0  0  0
   10.6597    2.2194   -5.8239 C   0  0  0  0  0  0  0  0  0  0  0  0
   10.9789    3.6552   -6.1274 C   0  0  0  0  0  0  0  0  0  0  0  0
   12.0207    4.3305   -5.4759 C   0  0  0  0  0  0  0  0  0  0  0  0
   10.2535    4.3552   -7.0904 C   0  0  0  0  0  0  0  0  0  0  0  0
   12.2447    5.6621   -5.7518 C   0  0  0  0  0  0  0  0  0  0  0  0
   10.4775    5.6866   -7.3676 C   0  0  0  0  0  0  0  0  0  0  0  0
   11.4840    6.3880   -6.6550 C   0  0  0  0  0  0  0  0  0  0  0  0
   11.7718    7.6829   -6.9302 O   0  0  0  0  0  0  0  0  0  0  0  0
   10.9442    8.5098   -7.7464 C   0  0  0  0  0  0  0  0  0  0  0  0
   11.7073    9.8038   -8.0699 C   0  0  2  0  0  0  0  0  0  0  0  0
   10.8005   10.9890   -8.3974 C   0  0  0  0  0  0  0  0  0  0  0  0
   12.6296    9.5837   -9.1246 O   0  0  0  0  0  0  0  0  0  0  0  0
  2  1  2  0
  3  2  1  0
  4  1  1  0
  5  4  2  0
  6  5  1  0
  6  3  2  0
  7  5  1  0
  8  7  2  0
  9  7  1  0
 10  9  1  0
 11 10  2  0
 12 10  1  0
 13 11  1  0
 14 12  2  0
 15 13  2  0
 15 14  1  0
 16 14  1  0
 17 16  1  0
 18 17  1  0
 19 18  1  0
 20 19  1  0
 21 20  2  0
 22 20  1  0
 23 21  1  0
 24 22  2  0
 25 24  1  0
 25 23  2  0
 26 25  1  0
 27 26  1  0
 28 27  1  0
 28 29  1  6
 30 28  1  0
M  END
>  <SMILES>  (22) 
CC(O)COc1ccc(CCCOc2ccnc(NC(=O)c3ccccc3)c2)cc1

>  <scaffold>  (22) 
benzene

$$$$

     RDKit          3D

 29 32  0  0  0  0  0  0  0  0999 V2000
   -0.0000   -0.0000    0.0000 C   0  0  0  0  0  0  0  0  0  0  0  0
   -0.0000   -0.0000    1.3862 C   0  0  0  0  0  0  0  0  0  0  0  0
    1.1974   -0.0000    2.0687 C   0  0  0  0  0  0  0  0  0  0  0  0
    1.1990   -0.0589   -0.6931 C   0  0  0  0  0  0  0  0  0  0  0  0
    2.3994   -0.0589    0.0000 C   0  0  0  0  0  0  0  0  0  0  0  0
    2.4678   -0.0014    1.3913 C   0  0  0  0  0  0  0  0  0  0  0  0
    3.5662    0.0573    2.1688 O   0  0  0  0  0  0  0  0  0  0  0  0
    4.7930    0.1242    1.5270 C   0  0  0  0  0  0  0  0  0  0  0  0
    5.1968    1.2250    0.7728 C   0  0  0  0  0  0  0  0  0  0  0  0
    5.7563   -0.8392    1.8582 C   0  0  0  0  0  0  0  0  0  0  0  0
    6.4394    1.2664    0.1966 C   0  0  0  0  0  0  0  0  0  0  0  0
    7.0144   -0.7827    1.2791 C   0  0  0  0  0  0  0  0  0  0  0  0
    7.3248    0.2135    0.4222 C   0  0  0  0  0  0  0  0  0  0  0  0
    8.4928    0.3408   -0.2366 O   0  0  0  0  0  0  0  0  0  0  0  0
    5.3819   -1.7853    2.7410 O   0  0  0  0  0  0  0  0  0  0  0  0
    6.3575   -2.7023    3.2088 C   0  0  0  0  0  0  0  0  0  0  0  0
    9.4409   -0.6758    0.0002 C   0  0  0  0  0  0  0  0  0  0  0  0
   10.6604   -0.2455   -0.8134 C   0  0  0  0  0  0  0  0  0  0  0  0
   11.7231   -1.2737   -0.5507 C   0  0  0  0  0  0  0  0  0  0  0  0
   12.0718   -2.2180   -1.5037 C   0  0  0  0  0  0  0  0  0  0  0  0
   12.4479   -1.2824    0.6401 C   0  0  0  0  0  0  0  0  0  0  0  0
   13.0183   -3.1726   -1.1994 C   0  0  0  0  0  0  0  0  0  0  0  0
   13.3858   -2.2234    0.9423 C   0  0  0  0  0  0  0  0  0  0  0  0
   13.6589   -3.2455    0.0367 C   0  0  0  0  0  0  0  0  0  0  0  0
   14.6970   -4.1970    0.3868 C   0  0  0  0  0  0  0  0  0  0  0  0
   15.2396   -5.1155   -0.4607 C   0  0  0  0  0  0  0  0  0  0  0  0
   15.2610   -4.2620    1.6255 N   0  0  0  0  0  0  0  0  0  0  0  0
   16.4572   -5.9505    0.3891 S   0  0  0  0  0  0  0  0  0  0  0  0
   16.1977   -5.1036    1.8056 C   0  0  0  0  0  0  0  0  0  0  0  0
  2  1  2  0
  3  2  1  0
  4  1  1  0
  5  4  2  0
  6  5  1  0
  6  3  2  0
  7  6  1  0
  8  7  1  0
  9  8  2  0
 10  8  1  0
 11  9  1  0
 12 10  2  0
 13 12  1  0
 13 11  2  0
 14 13  1  0
 15 10  1  0
 16 15  1  0
 17 14  1  0
 18 17  1  0
 19 18  1  0
 20 19  2  0
 21 19  1  0
 22 20  1  0
 23 21  2  0
 24 23  1  0
 24 22  2  0
 25 24  1  0
 26 25  2  0
 27 25  1  0
 28 26  1  0
 29 27  2  0
 29 28  1  0
M  END
>  <SMILES>  (23) 
COc1cc(OCCc2ccc(-c3cscn3)cc2)ccc1Oc1ccccc1

>  <scaffold>  (23) 
benzene

$$$$

     RDKit          3D

 25 26  0  0  0  0  0  0  0  0999 V2000
    0.0000    0.0000   -0.0000 C   0  0  0  0  0  0  0  0  0  0  0  0
   -0.0000    0.0000    1.3862 C   0  0  0  0  0  0  0  0  0  0  0  0
    1.2042    0.0000    2.0726 C   0  0  0  0  0  0  0  0  0  0  0  0
    1.1990   -0.0589   -0.6931 C   0  0  0  0  0  0  0  0  0  0  0  0
    2.4295   -0.1194   -0.0578 C   0  0  0  0  0  0  0  0  0  0  0  0
    2.3619   -0.1160    1.3267 C   0  0  0  0  0  0  0  0  0  0  0  0
    3.6385   -0.1272   -0.8146 N   0  0  0  0  0  0  0  0  0  0  0  0
    3.8476    0.8447   -1.7464 C   0  0  0  0  0  0  0  0  0  0  0  0
    4.5843   -1.1267   -0.7368 C   0  0  0  0  0  0  0  0  0  0  0  0
    4.8626    0.9077   -2.5105 N   0  0  0  0  0  0  0  0  0  0  0  0
    5.6832   -1.1161   -1.5025 C   0  0  0  0  0  0  0  0  0  0  0  0
    5.8930   -0.0192   -2.4861 C   0  0  0  0  0  0  0  0  0  0  0  0
    6.8190    0.0528   -3.2588 O   0  0  0  0  0  0  0  0  0  0  0  0
    4.2720   -2.3875    0.4104 Cl  0  0  0  0  0  0  0  0  0  0  0  0
    6.7154   -2.2070   -1.4943 C   0  0  0  0  0  0  0  0  0  0  0  0
    6.3952   -3.3728   -1.6159 O   0  0  0  0  0  0  0  0  0  0  0  0
    7.9855   -1.7888   -1.3316 N   0  0  0  0  0  0  0  0  0  0  0  0
    9.1479   -2.6349   -1.4535 C   0  0  0  0  0  0  0  0  0  0  0  0
   10.0894   -2.4790   -0.2603 C   0  0  0  0  0  0  0  0  0  0  0  0
   10.5516   -1.1726   -0.1076 O   0  0  0  0  0  0  0  0  0  0  0  0
   11.6086   -0.8504   -0.9838 C   0  0  0  0  0  0  0  0  0  0  0  0
   12.0549    0.5773   -0.6726 C   0  0  0  0  0  0  0  0  0  0  0  0
   13.0673    1.0324   -1.5161 O   0  0  0  0  0  0  0  0  0  0  0  0
   14.3492    0.4608   -1.3128 C   0  0  0  0  0  0  0  0  0  0  0  0
   15.3744    1.1734   -2.1936 C   0  0  0  0  0  0  0  0  0  0  0  0
  2  1  2  0
  3  2  1  0
  4  1  1  0
  5  4  2  0
  6  5  1  0
  6  3  2  0
  7  5  1  0
  8  7  1  0
  9  7  1  0
 10  8  2  0
 11  9  2  0
 12 10  1  0
 12 11  1  0
 13 12  2  0
 14  9  1  0
 15 11  1  0
 16 15  2  0
 17 15  1  0
 18 17  1  0
 19 18  1  0
 20 19  1  0
 21 20  1  0
 22 21  1  0
 23 22  1  0
 24 23  1  0
 25 24  1  0
M  END
>  <SMILES>  (24) 
CCOCCOCCNC(=O)c1c(Cl)n(-c2ccccc2)cnc1=O

>  <scaffold>  (24) 
benzene

$$$$

     RDKit          3D

 35 37  0  0  0  0  0  0  0  0999 V2000
    0.0000   -0.0000    0.0000 C   0  0  0  0  0  0  0  0  0  0  0  0
    0.0000    0.0000    1.3941 C   0  0  0  0  0  0  0  0  0  0  0  0
    1.1860    0.0000    2.0963 C   0  0  0  0  0  0  0  0  0  0  0  0
    1.2391   -0.0000   -0.6390 C   0  0  0  0  0  0  0  0  0  0  0  0
    2.3976    0.0000    0.1076 C   0  0  0  0  0  0  0  0  0  0  0  0
    2.3976   -0.0000    1.4937 C   0  0  0  0  0  0  0  0  0  0  0  0
   -1.1652    0.0000   -0.7508 N   0  0  0  0  0  0  0  0  0  0  0  0
   -2.4537    0.0000   -0.3579 C   0  0  0  0  0  0  0  0  0  0  0  0
   -2.8846   -0.0000    0.7782 O   0  0  0  0  0  0  0  0  0  0  0  0
   -3.3986   -0.0552   -1.3814 N   0  0  0  0  0  0  0  0  0  0  0  0
   -3.1542   -0.1084   -2.7208 C   0  0  0  0  0  0  0  0  0  0  0  0
   -1.9817   -0.1171   -3.2858 N   0  0  0  0  0  0  0  0  0  0  0  0
   -4.2032   -0.1042   -3.5658 O   0  0  0  0  0  0  0  0  0  0  0  0
   -2.2949   -0.1236   -4.6280 N   0  0  0  0  0  0  0  0  0  0  0  0
   -3.5774   -0.1111   -4.7499 C   0  0  0  0  0  0  0  0  0  0  0  0
   -4.3394   -0.1686   -6.0329 C   0  0  0  0  0  0  0  0  0  0  0  0
   -3.6179    0.3642   -7.1001 O   0  0  0  0  0  0  0  0  0  0  0  0
   -3.3044    1.6901   -7.0814 C   0  0  0  0  0  0  0  0  0  0  0  0
   -2.5441    2.1637   -8.1392 C   0  0  0  0  0  0  0  0  0  0  0  0
   -3.6829    2.6152   -6.1209 C   0  0  0  0  0  0  0  0  0  0  0  0
   -2.2090    3.4952   -8.2594 C   0  0  0  0  0  0  0  0  0  0  0  0
   -3.3514    3.9235   -6.2387 C   0  0  0  0  0  0  0  0  0  0  0  0
   -2.6265    4.4185   -7.3136 C   0  0  0  0  0  0  0  0  0  0  0  0
   -2.4047    5.7624   -7.3512 O   0  0  0  0  0  0  0  0  0  0  0  0
   -1.6824    6.2530   -8.4586 C   0  0  0  0  0  0  0  0  0  0  0  0
   -1.5367    7.7528   -8.2065 C   0  0  0  0  0  0  0  0  0  0  0  0
   -0.5242    8.0338   -7.0973 C   0  0  0  0  0  0  0  0  0  0  0  0
   -0.3011    9.5238   -6.8436 C   0  0  0  0  0  0  0  0  0  0  0  0
    0.7437    9.8589   -5.7803 C   0  0  0  0  0  0  0  0  0  0  0  0
    0.8894   11.3584   -5.5264 C   0  0  0  0  0  0  0  0  0  0  0  0
    1.8930   11.6333   -4.4315 C   0  0  0  0  0  0  0  0  0  0  0  0
    2.0371   13.1353   -4.0972 C   0  0  1  0  0  0  0  0  0  0  0  0
    3.0212   13.3544   -2.9492 C   0  0  0  0  0  0  0  0  0  0  0  0
    2.4637   13.9365   -5.2937 C   0  0  0  0  0  0  0  0  0  0  0  0
    1.7907   14.7969   -5.8261 O   0  0  0  0  0  0  0  0  0  0  0  0
  2  1  2  0
  3  2  1  0
  4  1  1  0
  5  4  2  0
  6  5  1  0
  6  3  2  0
  7  1  1  0
  8  7  1  0
  9  8  2  0
 10  8  1  0
 11 10  1  0
 12 11  2  0
 13 11  1  0
 14 12  1  0
 15 14  2  0
 15 13  1  0
 16 15  1  0
 17 16  1  0
 18 17  1  0
 19 18  2  0
 20 18  1  0
 21 19  1  0
 22 20  2  0
 23 22  1  0
 23 21  2  0
 24 23  1  0
 25 24  1  0
 26 25  1  0
 27 26  1  0
 28 27  1  0
 29 28  1  0
 30 29  1  0
 31 30  1  0
 32 31  1  0
 32 33  1  1
 34 32  1  0
 35 34  2  0
M  END
>  <SMILES>  (25) 
CC(C=O)CCCCCCCOc1ccc(OCc2nnc(NC(=O)Nc3ccccc3)o2)cc1

>  <scaffold>  (25) 
benzene

$$$$

     RDKit          3D

 26 27  0  0  0  0  0  0  0  0999 V2000
    0.0000   -0.0000    0.0000 C   0  0  0  0  0  0  0  0  0  0  0  0
    0.0000    0.0000    1.3862 C   0  0  0  0  0  0  0  0  0  0  0  0
    1.1878   -0.0000    2.1160 C   0  0  0  0  0  0  0  0  0  0  0  0
    1.2250    0.0000   -0.6317 C   0  0  0  0  0  0  0  0  0  0  0  0
    2.4308   -0.0592    0.0654 C   0  0  0  0  0  0  0  0  0  0  0  0
    2.3647   -0.0609    1.4579 C   0  0  0  0  0  0  0  0  0  0  0  0
   -1.1972   -0.0000    2.0035 F   0  0  0  0  0  0  0  0  0  0  0  0
    3.6925   -0.0116   -0.5259 N   0  0  0  0  0  0  0  0  0  0  0  0
    3.9933   -0.1589   -1.8628 C   0  0  0  0  0  0  0  0  0  0  0  0
    3.2639   -1.1966   -2.8672 S   0  0  0  0  0  0  0  0  0  0  0  0
    5.1418    0.4650   -2.2193 N   0  0  0  0  0  0  0  0  0  0  0  0
    5.7066    1.6492   -1.5994 C   0  0  0  0  0  0  0  0  0  0  0  0
    4.6255    2.6254   -1.2337 C   0  0  0  0  0  0  0  0  0  0  0  0
    4.5011    3.1483    0.0440 C   0  0  0  0  0  0  0  0  0  0  0  0
    3.6819    3.0631   -2.1620 C   0  0  0  0  0  0  0  0  0  0  0  0
    3.5372    3.9732    0.4227 N   0  0  0  0  0  0  0  0  0  0  0  0
    2.6785    3.9218   -1.7678 C   0  0  0  0  0  0  0  0  0  0  0  0
    2.6210    4.3311   -0.4750 C   0  0  0  0  0  0  0  0  0  0  0  0
    1.6387    5.1282   -0.0351 O   0  0  0  0  0  0  0  0  0  0  0  0
    1.5971    5.5574    1.3246 C   0  0  0  0  0  0  0  0  0  0  0  0
    2.6157    6.6636    1.5947 C   0  0  0  0  0  0  0  0  0  0  0  0
    2.4933    7.1243    3.0463 C   0  0  0  0  0  0  0  0  0  0  0  0
    3.5301    8.1948    3.3832 C   0  0  0  0  0  0  0  0  0  0  0  0
    3.3304    8.6591    4.8251 C   0  0  0  0  0  0  0  0  0  0  0  0
    4.3797    9.6933    5.2298 C   0  0  0  0  0  0  0  0  0  0  0  0
    4.1037   10.1639    6.6570 C   0  0  0  0  0  0  0  0  0  0  0  0
  2  1  2  0
  3  2  1  0
  4  1  1  0
  5  4  2  0
  6  5  1  0
  6  3  2  0
  7  2  1  0
  8  5  1  0
  9  8  1  0
 10  9  2  0
 11  9  1  0
 12 11  1  0
 13 12  1  0
 14 13  2  0
 15 13  1  0
 16 14  1  0
 17 15  2  0
 18 17  1  0
 18 16  2  0
 19 18  1  0
 20 19  1  0
 21 20  1  0
 22 21  1  0
 23 22  1  0
 24 23  1  0
 25 24  1  0
 26 25  1  0
M  END
>  <SMILES>  (26) 
CCCCCCCOc1ccc(CNC(=S)Nc2ccc(F)cc2)cn1

>  <scaffold>  (26) 
benzene

$$$$

     RDKit          3D

 19 20  0  0  0  0  0  0  0  0999 V2000
   -0.0000   -0.0000    0.0000 C   0  0  0  0  0  0  0  0  0  0  0  0
    0.0000    0.0000    1.3941 C   0  0  0  0  0  0  0  0  0  0  0  0
    1.2223   -0.0000    2.0645 C   0  0  0  0  0  0  0  0  0  0  0  0
    1.1922   -0.0586   -0.6891 C   0  0  0  0  0  0  0  0  0  0  0  0
    2.4297   -0.1194   -0.0502 C   0  0  0  0  0  0  0  0  0  0  0  0
    2.3618   -0.1160    1.3423 C   0  0  0  0  0  0  0  0  0  0  0  0
   -1.2180    0.0000    2.0222 N   0  0  0  0  0  0  0  0  0  0  0  0
    3.6547   -0.1269   -0.6103 O   0  0  0  0  0  0  0  0  0  0  0  0
    3.7114   -0.2556   -2.0216 C   0  0  0  0  0  0  0  0  0  0  0  0
   -1.2660   -0.0480    3.3522 N   0  0  0  0  0  0  0  0  0  0  0  0
   -2.4170   -0.0920    3.8920 C   0  0  0  0  0  0  0  0  0  0  0  0
    3.4917   -1.6863   -2.4827 C   0  0  0  0  0  0  0  0  0  0  0  0
   -2.5227   -0.0930    5.3393 C   0  0  0  0  0  0  0  0  0  0  0  0
   -3.7838   -0.0892    5.7904 N   0  0  0  0  0  0  0  0  0  0  0  0
   -1.4580   -0.1116    6.2391 C   0  0  0  0  0  0  0  0  0  0  0  0
   -4.0027   -0.0384    7.0876 C   0  0  0  0  0  0  0  0  0  0  0  0
   -1.6891   -0.0561    7.6128 C   0  0  0  0  0  0  0  0  0  0  0  0
   -2.9781    0.0130    8.0434 C   0  0  0  0  0  0  0  0  0  0  0  0
   -3.3246    0.1143    9.3332 O   0  0  0  0  0  0  0  0  0  0  0  0
  2  1  2  0
  3  2  1  0
  4  1  1  0
  5  4  2  0
  6  5  1  0
  6  3  2  0
  7  2  1  0
  8  5  1  0
  9  8  1  0
 10  7  1  0
 11 10  2  0
 12  9  1  0
 13 11  1  0
 14 13  2  0
 15 13  1  0
 16 14  1  0
 17 15  2  0
 18 17  1  0
 18 16  2  0
 19 18  1  0
M  END
>  <SMILES>  (27) 
CCOc1ccc(NN=Cc2ccc(O)cn2)cc1

>  <scaffold>  (27) 
benzene

$$$$

     RDKit          3D

 23 25  0  0  0  0  0  0  0  0999 V2000
   -0.0000   -0.0000    0.0000 C   0  0  0  0  0  0  0  0  0  0  0  0
   -0.0000   -0.0000    1.3782 C   0  0  0  0  0  0  0  0  0  0  0  0
    1.1928    0.0000    2.0844 C   0  0  0  0  0  0  0  0  0  0  0  0
    1.2059   -0.0592   -0.6971 C   0  0  0  0  0  0  0  0  0  0  0  0
    2.4271   -0.0592    0.0080 C   0  0  0  0  0  0  0  0  0  0  0  0
    2.3605    0.0022    1.4153 C   0  0  0  0  0  0  0  0  0  0  0  0
    3.8297    0.0677    2.3321 Cl  0  0  0  0  0  0  0  0  0  0  0  0
    1.3300   -0.1179   -2.0371 O   0  0  0  0  0  0  0  0  0  0  0  0
    3.6004   -0.1626   -0.6134 O   0  0  0  0  0  0  0  0  0  0  0  0
    0.1557    0.0025   -2.7936 C   0  0  0  0  0  0  0  0  0  0  0  0
   -0.5340    1.3322   -2.5994 C   0  0  0  0  0  0  0  0  0  0  0  0
   -1.8755    1.4450   -2.9618 C   0  0  0  0  0  0  0  0  0  0  0  0
    0.1027    2.4736   -2.1141 C   0  0  0  0  0  0  0  0  0  0  0  0
   -2.5067    2.6039   -2.8533 N   0  0  0  0  0  0  0  0  0  0  0  0
   -0.5601    3.6856   -1.9995 C   0  0  0  0  0  0  0  0  0  0  0  0
   -1.9128    3.6821   -2.4082 C   0  0  0  0  0  0  0  0  0  0  0  0
   -2.8331    5.1985   -2.2247 S   0  0  0  0  0  0  0  0  0  0  0  0
   -4.0146    4.9449   -3.5500 C   0  0  0  0  0  0  0  0  0  0  0  0
   -5.3055    5.4104   -3.3042 C   0  0  0  0  0  0  0  0  0  0  0  0
   -3.6824    4.4845   -4.8146 C   0  0  0  0  0  0  0  0  0  0  0  0
   -6.2407    5.2809   -4.3192 C   0  0  0  0  0  0  0  0  0  0  0  0
   -4.6189    4.3518   -5.8170 C   0  0  0  0  0  0  0  0  0  0  0  0
   -5.9453    4.6600   -5.5228 C   0  0  0  0  0  0  0  0  0  0  0  0
  2  1  2  0
  3  2  1  0
  4  1  1  0
  5  4  2  0
  6  5  1  0
  6  3  2  0
  7  6  1  0
  8  4  1  0
  9  5  1  0
 10  8  1  0
 11 10  1  0
 12 11  2  0
 13 11  1  0
 14 12  1  0
 15 13  2  0
 16 15  1  0
 16 14  2  0
 17 16  1  0
 18 17  1  0
 19 18  2  0
 20 18  1  0
 21 19  1  0
 22 20  2  0
 23 21  2  0
 23 22  1  0
M  END
>  <SMILES>  (28) 
Oc1c(Cl)cccc1OCc1ccc(Sc2ccccc2)nc1

>  <scaffold>  (28) 
benzene

$$$$

     RDKit          3D

 31 32  0  0  0  0  0  0  0  0999 V2000
    0.0000    0.0000    0.0000 C   0  0  0  0  0  0  0  0  0  0  0  0
    0.0000   -0.0000    1.3862 C   0  0  0  0  0  0  0  0  0  0  0  0
    1.2042   -0.0000    2.0726 C   0  0  0  0  0  0  0  0  0  0  0  0
    1.1990   -0.0589   -0.6931 C   0  0  0  0  0  0  0  0  0  0  0  0
    2.4295   -0.1194   -0.0578 C   0  0  0  0  0  0  0  0  0  0  0  0
    2.4317   -0.0601    1.3351 C   0  0  0  0  0  0  0  0  0  0  0  0
    3.7513   -0.2385   -0.7608 C   0  0  0  0  0  0  0  0  0  0  0  0
    4.7274    0.3945   -0.4615 O   0  0  0  0  0  0  0  0  0  0  0  0
    3.6425   -1.1658   -1.7532 N   0  0  0  0  0  0  0  0  0  0  0  0
    4.6731   -1.4151   -2.5589 N   0  0  0  0  0  0  0  0  0  0  0  0
    4.5407   -2.3363   -3.4581 C   0  0  0  0  0  0  0  0  0  0  0  0
    5.5851   -2.5195   -4.2764 N   0  0  0  0  0  0  0  0  0  0  0  0
    3.3103   -3.1429   -3.6576 C   0  0  0  0  0  0  0  0  0  0  0  0
    2.7061   -3.5854   -2.5564 N   0  0  0  0  0  0  0  0  0  0  0  0
    2.8703   -3.4045   -4.9458 C   0  0  0  0  0  0  0  0  0  0  0  0
    1.5922   -4.2611   -2.6838 C   0  0  0  0  0  0  0  0  0  0  0  0
    1.6837   -4.1234   -5.0821 C   0  0  0  0  0  0  0  0  0  0  0  0
    0.9876   -4.5530   -3.9056 C   0  0  0  0  0  0  0  0  0  0  0  0
   -0.2074   -5.2238   -3.9070 O   0  0  0  0  0  0  0  0  0  0  0  0
   -0.7992   -5.6627   -5.1284 C   0  0  0  0  0  0  0  0  0  0  0  0
   -0.1003   -6.9066   -5.6748 C   0  0  0  0  0  0  0  0  0  0  0  0
   -0.5450   -7.2859   -7.0864 C   0  0  0  0  0  0  0  0  0  0  0  0
    0.1644   -8.4919   -7.7001 C   0  0  0  0  0  0  0  0  0  0  0  0
   -0.2773   -8.7957   -9.1309 C   0  0  0  0  0  0  0  0  0  0  0  0
    0.3240   -9.9512   -9.7321 O   0  0  0  0  0  0  0  0  0  0  0  0
    1.5586   -9.7945  -10.2058 C   0  0  0  0  0  0  0  0  0  0  0  0
    2.2072   -8.7918  -10.1778 O   0  0  0  0  0  0  0  0  0  0  0  0
    1.9303  -10.9509  -10.7700 O   0  0  0  0  0  0  0  0  0  0  0  0
    3.2647  -11.0012  -11.2942 C   0  0  0  0  0  0  0  0  0  0  0  0
    4.3160  -11.1959  -10.2028 C   0  0  0  0  0  0  0  0  0  0  0  0
    5.7247  -11.4797  -10.7217 C   0  0  0  0  0  0  0  0  0  0  0  0
  2  1  2  0
  3  2  1  0
  4  1  1  0
  5  4  2  0
  6  5  1  0
  6  3  2  0
  7  5  1  0
  8  7  2  0
  9  7  1  0
 10  9  1  0
 11 10  2  0
 12 11  1  0
 13 11  1  0
 14 13  2  0
 15 13  1  0
 16 14  1  0
 17 15  2  0
 18 17  1  0
 18 16  2  0
 19 18  1  0
 20 19  1  0
 21 20  1  0
 22 21  1  0
 23 22  1  0
 24 23  1  0
 25 24  1  0
 26 25  1  0
 27 26  2  0
 28 26  1  0
 29 28  1  0
 30 29  1  0
 31 30  1  0
M  END
>  <SMILES>  (29) 
CCCOC(=O)OCCCCCOc1ccc(C(N)=NNC(=O)c2ccccc2)nc1

>  <scaffold>  (29) 
benzene

$$$$

     RDKit          3D

 31 32  0  0  0  0  0  0  0  0999 V2000
    0.0000   -0.0000   -0.0000 C   0  0  0  0  0  0  0  0  0  0  0  0
    0.0000    0.0000    1.4183 C   0  0  0  0  0  0  0  0  0  0  0  0
    1.2042    0.0000    2.1048 C   0  0  0  0  0  0  0  0  0  0  0  0
    1.1922    0.0586   -0.6891 C   0  0  0  0  0  0  0  0  0  0  0  0
    2.4064    0.0586    0.0119 C   0  0  0  0  0  0  0  0  0  0  0  0
    2.4064    0.0586    1.3981 C   0  0  0  0  0  0  0  0  0  0  0  0
   -1.1904   -0.0000    2.0321 O   0  0  0  0  0  0  0  0  0  0  0  0
    3.6372    0.0663   -0.6428 N   0  0  0  0  0  0  0  0  0  0  0  0
    3.8856    0.0116   -1.9814 C   0  0  0  0  0  0  0  0  0  0  0  0
    4.8264    0.1152   -0.0120 N   0  0  0  0  0  0  0  0  0  0  0  0
    5.1830   -0.0039   -2.0831 N   0  0  0  0  0  0  0  0  0  0  0  0
    5.7648    0.0589   -0.8689 N   0  0  0  0  0  0  0  0  0  0  0  0
   -1.3239    0.0553    3.4430 C   0  0  0  0  0  0  0  0  0  0  0  0
   -1.0542    1.4653    3.9661 C   0  0  0  0  0  0  0  0  0  0  0  0
   -2.0073    2.5095    3.3870 C   0  0  0  0  0  0  0  0  0  0  0  0
   -1.6615    3.9071    3.8984 C   0  0  0  0  0  0  0  0  0  0  0  0
   -2.6209    4.9823    3.3906 C   0  0  0  0  0  0  0  0  0  0  0  0
   -2.2649    6.3492    3.9729 C   0  0  0  0  0  0  0  0  0  0  0  0
   -3.2295    7.4515    3.5381 C   0  0  0  0  0  0  0  0  0  0  0  0
   -2.8624    8.7839    4.1895 C   0  0  0  0  0  0  0  0  0  0  0  0
   -3.8255    9.9027    3.8310 C   0  0  0  0  0  0  0  0  0  0  0  0
   -3.4487   11.1894    4.5452 C   0  0  2  0  0  0  0  0  0  0  0  0
   -3.5515   11.0718    5.9146 F   0  0  0  0  0  0  0  0  0  0  0  0
   -4.2981   12.3830    4.1111 C   0  0  0  0  0  0  0  0  0  0  0  0
   -5.7634   12.2785    4.5309 C   0  0  0  0  0  0  0  0  0  0  0  0
   -6.5556   13.5191    4.1213 C   0  0  0  0  0  0  0  0  0  0  0  0
   -8.0168   13.4880    4.5669 C   0  0  0  0  0  0  0  0  0  0  0  0
   -8.7490   14.7724    4.1812 C   0  0  0  0  0  0  0  0  0  0  0  0
  -10.2015   14.8142    4.6531 C   0  0  0  0  0  0  0  0  0  0  0  0
  -10.8711   16.1388    4.2905 C   0  0  0  0  0  0  0  0  0  0  0  0
  -12.3109   16.2528    4.7891 C   0  0  0  0  0  0  0  0  0  0  0  0
  2  1  2  0
  3  2  1  0
  4  1  1  0
  5  4  2  0
  6  5  1  0
  6  3  2  0
  7  2  1  0
  8  5  1  0
  9  8  1  0
 10  8  1  0
 11  9  2  0
 12 11  1  0
 12 10  2  0
 13  7  1  0
 14 13  1  0
 15 14  1  0
 16 15  1  0
 17 16  1  0
 18 17  1  0
 19 18  1  0
 20 19  1  0
 21 20  1  0
 22 21  1  0
 22 23  1  1
 24 22  1  0
 25 24  1  0
 26 25  1  0
 27 26  1  0
 28 27  1  0
 29 28  1  0
 30 29  1  0
 31 30  1  0
M  END
>  <SMILES>  (30) 
CCCCCCCCC(F)CCCCCCCCCOc1ccc(-n2cnnn2)cc1

>  <scaffold>  (30) 
benzene

$$$$

     RDKit          3D

 28 29  0  0  0  0  0  0  0  0999 V2000
    0.0000   -0.0000   -0.0000 C   0  0  0  0  0  0  0  0  0  0  0  0
    0.0000   -0.0000    1.3862 C   0  0  0  0  0  0  0  0  0  0  0  0
    1.1928    0.0000    2.0924 C   0  0  0  0  0  0  0  0  0  0  0  0
    1.1652    0.0000   -0.7508 C   0  0  0  0  0  0  0  0  0  0  0  0
    2.3371   -0.0000    0.0043 C   0  0  0  0  0  0  0  0  0  0  0  0
    2.3371    0.0000    1.3984 C   0  0  0  0  0  0  0  0  0  0  0  0
    1.2197   -0.0545   -2.2593 C   0  0  0  0  0  0  0  0  0  0  0  0
    3.5009    0.0489   -0.6875 F   0  0  0  0  0  0  0  0  0  0  0  0
    0.1228   -0.8002   -2.7615 O   0  0  0  0  0  0  0  0  0  0  0  0
    0.1696   -2.1443   -2.5982 C   0  0  0  0  0  0  0  0  0  0  0  0
    1.1134   -2.6591   -2.0470 O   0  0  0  0  0  0  0  0  0  0  0  0
   -1.0389   -2.7862   -3.1054 C   0  0  0  0  0  0  0  0  0  0  0  0
   -1.2535   -4.0819   -3.0135 C   0  0  0  0  0  0  0  0  0  0  0  0
   -2.5011   -4.7823   -3.4701 C   0  0  0  0  0  0  0  0  0  0  0  0
   -2.2017   -5.9462   -4.3128 N   0  0  0  0  0  0  0  0  0  0  0  0
   -2.7668   -7.2178   -3.9637 C   0  0  0  0  0  0  0  0  0  0  0  0
   -1.3904   -5.8401   -5.3926 C   0  0  0  0  0  0  0  0  0  0  0  0
   -1.2028   -6.8181   -6.0889 O   0  0  0  0  0  0  0  0  0  0  0  0
   -0.7479   -4.5236   -5.6821 C   0  0  0  0  0  0  0  0  0  0  0  0
    0.4971   -4.2595   -5.1531 C   0  0  0  0  0  0  0  0  0  0  0  0
   -1.4189   -3.5199   -6.3792 C   0  0  0  0  0  0  0  0  0  0  0  0
    1.1146   -3.0260   -5.3546 C   0  0  0  0  0  0  0  0  0  0  0  0
   -0.8064   -2.3104   -6.5787 C   0  0  0  0  0  0  0  0  0  0  0  0
    0.4872   -2.0856   -6.1430 C   0  0  0  0  0  0  0  0  0  0  0  0
    0.9645   -0.8296   -6.3697 O   0  0  0  0  0  0  0  0  0  0  0  0
    2.1740   -0.4581   -5.7655 C   0  0  0  0  0  0  0  0  0  0  0  0
    2.0497   -0.4124   -4.2434 C   0  0  0  0  0  0  0  0  0  0  0  0
    3.0147   -0.4740   -3.5423 O   0  0  0  0  0  0  0  0  0  0  0  0
  2  1  2  0
  3  2  1  0
  4  1  1  0
  5  4  2  0
  6  5  1  0
  6  3  2  0
  7  4  1  0
  8  5  1  0
  9  7  1  0
 10  9  1  0
 11 10  2  0
 12 10  1  0
 13 12  2  0
 14 13  1  0
 15 14  1  0
 16 15  1  0
 17 15  1  0
 18 17  2  0
 19 17  1  0
 20 19  2  0
 21 19  1  0
 22 20  1  0
 23 21  2  0
 24 23  1  0
 24 22  2  0
 25 24  1  0
 26 25  1  0
 27 26  1  0
 28 27  2  0
M  END
>  <SMILES>  (31) 
CN(CC=CC(=O)OCc1ccccc1F)C(=O)c1ccc(OCC=O)cc1

>  <scaffold>  (31) 
benzene

$$$$

     RDKit          3D

 27 28  0  0  0  0  0  0  0  0999 V2000
   -0.0000    0.0000   -0.0000 C   0  0  0  0  0  0  0  0  0  0  0  0
   -0.0000   -0.0000    1.3862 C   0  0  0  0  0  0  0  0  0  0  0  0
    1.2042    0.0000    2.0726 C   0  0  0  0  0  0  0  0  0  0  0  0
    1.2320   -0.0000   -0.6353 C   0  0  0  0  0  0  0  0  0  0  0  0
    2.3972   -0.0000    0.1155 C   0  0  0  0  0  0  0  0  0  0  0  0
    2.3972    0.0000    1.5096 C   0  0  0  0  0  0  0  0  0  0  0  0
    3.5403    0.0503    2.3061 N   0  0  0  0  0  0  0  0  0  0  0  0
    4.8349    0.1072    1.9109 C   0  0  0  0  0  0  0  0  0  0  0  0
    5.3056    0.1280    0.7909 O   0  0  0  0  0  0  0  0  0  0  0  0
    5.7385    0.0886    3.0782 C   0  0  0  0  0  0  0  0  0  0  0  0
    5.3873    0.0272    4.3223 N   0  0  0  0  0  0  0  0  0  0  0  0
    7.4619    0.0847    2.8186 S   0  0  0  0  0  0  0  0  0  0  0  0
    6.4107    0.0775    5.2086 C   0  0  0  0  0  0  0  0  0  0  0  0
    7.6202    0.1290    4.5538 C   0  0  0  0  0  0  0  0  0  0  0  0
    8.8786    0.1981    5.1117 N   0  0  0  0  0  0  0  0  0  0  0  0
   10.0398    0.2350    4.3703 C   0  0  0  0  0  0  0  0  0  0  0  0
    9.9699    0.2062    3.1714 O   0  0  0  0  0  0  0  0  0  0  0  0
    6.2183    0.0801    6.6808 C   0  0  0  0  0  0  0  0  0  0  0  0
   11.1467    0.3525    5.0733 O   0  0  0  0  0  0  0  0  0  0  0  0
   12.4658    0.3522    4.4885 C   0  0  1  0  0  0  0  0  0  0  0  0
   12.7255   -1.0012    3.8288 C   0  0  0  0  0  0  0  0  0  0  0  0
   12.5925    1.5099    3.4996 C   0  0  0  0  0  0  0  0  0  0  0  0
   12.2985    2.8870    4.0924 C   0  0  0  0  0  0  0  0  0  0  0  0
   12.3856    4.0021    3.0516 C   0  0  0  0  0  0  0  0  0  0  0  0
   12.1533    5.4070    3.6056 C   0  0  0  0  0  0  0  0  0  0  0  0
   12.1967    6.4721    2.5233 C   0  0  0  0  0  0  0  0  0  0  0  0
   12.0241    7.9018    3.0337 C   0  0  0  0  0  0  0  0  0  0  0  0
  2  1  2  0
  3  2  1  0
  4  1  1  0
  5  4  2  0
  6  5  1  0
  6  3  2  0
  7  6  1  0
  8  7  1  0
  9  8  2  0
 10  8  1  0
 11 10  2  0
 12 10  1  0
 13 11  1  0
 14 13  2  0
 14 12  1  0
 15 14  1  0
 16 15  1  0
 17 16  2  0
 18 13  1  0
 19 16  1  0
 20 19  1  0
 20 21  1  6
 22 20  1  0
 23 22  1  0
 24 23  1  0
 25 24  1  0
 26 25  1  0
 27 26  1  0
M  END
>  <SMILES>  (32) 
CCCCCCC(C)OC(=O)Nc1sc(C(=O)Nc2ccccc2)nc1C

>  <scaffold>  (32) 
benzene

$$$$

     RDKit          3D

 23 25  0  0  0  0  0  0  0  0999 V2000
   -0.0000   -0.0000   -0.0000 C   0  0  0  0  0  0  0  0  0  0  0  0
   -0.0000   -0.0000    1.3862 C   0  0  0  0  0  0  0  0  0  0  0  0
    1.2042   -0.0000    2.0726 C   0  0  0  0  0  0  0  0  0  0  0  0
    1.1990    0.0589   -0.6931 C   0  0  0  0  0  0  0  0  0  0  0  0
    2.3994    0.0589    0.0000 C   0  0  0  0  0  0  0  0  0  0  0  0
    2.3336   -0.0019    1.3912 C   0  0  0  0  0  0  0  0  0  0  0  0
    3.5441    0.1664   -0.7167 F   0  0  0  0  0  0  0  0  0  0  0  0
    3.4929    0.0451    2.1204 O   0  0  0  0  0  0  0  0  0  0  0  0
    4.5193   -0.8320    1.8429 C   0  0  0  0  0  0  0  0  0  0  0  0
    4.2674   -2.1021    1.3482 C   0  0  0  0  0  0  0  0  0  0  0  0
    5.8257   -0.4685    2.1304 C   0  0  0  0  0  0  0  0  0  0  0  0
    5.3170   -2.9566    1.1335 C   0  0  0  0  0  0  0  0  0  0  0  0
    6.8790   -1.3312    1.9163 C   0  0  0  0  0  0  0  0  0  0  0  0
    6.6464   -2.6214    1.3863 C   0  0  0  0  0  0  0  0  0  0  0  0
    7.6676   -3.4923    1.1098 N   0  0  0  0  0  0  0  0  0  0  0  0
    9.0751   -3.1519    0.9280 C   0  0  0  0  0  0  0  0  0  0  0  0
    9.9052   -4.3537    0.5786 C   0  0  0  0  0  0  0  0  0  0  0  0
   10.7194   -5.0028    1.4936 C   0  0  0  0  0  0  0  0  0  0  0  0
    9.7054   -4.9341   -0.6642 C   0  0  0  0  0  0  0  0  0  0  0  0
   11.4295   -6.1386    1.1372 C   0  0  0  0  0  0  0  0  0  0  0  0
   10.4090   -6.0679   -1.0092 C   0  0  0  0  0  0  0  0  0  0  0  0
   11.3576   -6.6753   -0.1475 C   0  0  0  0  0  0  0  0  0  0  0  0
   12.0093   -7.8355   -0.5356 N   0  0  0  0  0  0  0  0  0  0  0  0
  2  1  2  0
  3  2  1  0
  4  1  1  0
  5  4  2  0
  6  5  1  0
  6  3  2  0
  7  5  1  0
  8  6  1  0
  9  8  1  0
 10  9  2  0
 11  9  1  0
 12 10  1  0
 13 11  2  0
 14 12  2  0
 14 13  1  0
 15 14  1  0
 16 15  1  0
 17 16  1  0
 18 17  2  0
 19 17  1  0
 20 18  1  0
 21 19  2  0
 22 21  1  0
 22 20  2  0
 23 22  1  0
M  END
>  <SMILES>  (33) 
Nc1ccc(CNc2ccc(Oc3ccccc3F)cc2)cc1

>  <scaffold>  (33) 
benzene

$$$$

     RDKit          3D

 29 31  0  0  0  0  0  0  0  0999 V2000
    0.0000   -0.0000    0.0000 C   0  0  0  0  0  0  0  0  0  0  0  0
    0.0000   -0.0000    1.3941 C   0  0  0  0  0  0  0  0  0  0  0  0
    1.2042   -0.0000    2.0806 C   0  0  0  0  0  0  0  0  0  0  0  0
    1.2391   -0.0000   -0.6390 C   0  0  0  0  0  0  0  0  0  0  0  0
    2.4109   -0.0000    0.1162 C   0  0  0  0  0  0  0  0  0  0  0  0
    2.4109   -0.0000    1.5103 C   0  0  0  0  0  0  0  0  0  0  0  0
    3.6750    0.0523   -0.5946 C   0  0  0  0  0  0  0  0  0  0  0  0
    3.8349    0.3883   -1.8496 N   0  0  0  0  0  0  0  0  0  0  0  0
    4.8987   -0.1738   -0.0022 N   0  0  0  0  0  0  0  0  0  0  0  0
    5.1370    0.3885   -2.1944 N   0  0  0  0  0  0  0  0  0  0  0  0
    5.7281    0.0434   -1.0611 C   0  0  0  0  0  0  0  0  0  0  0  0
   -1.1388   -0.0000   -0.7338 O   0  0  0  0  0  0  0  0  0  0  0  0
    7.0216   -0.1197   -0.9443 O   0  0  0  0  0  0  0  0  0  0  0  0
   -2.3921    0.0000   -0.0875 C   0  0  0  0  0  0  0  0  0  0  0  0
    7.7893    0.1939   -2.1149 C   0  0  0  0  0  0  0  0  0  0  0  0
    9.1349   -0.5169   -1.9781 C   0  0  0  0  0  0  0  0  0  0  0  0
   10.0527   -0.0999   -3.1378 C   0  0  0  0  0  0  0  0  0  0  0  0
   11.3648   -0.8104   -3.0785 C   0  0  0  0  0  0  0  0  0  0  0  0
   12.3809   -0.3435   -2.2594 C   0  0  0  0  0  0  0  0  0  0  0  0
   11.6134   -1.9563   -3.8326 C   0  0  0  0  0  0  0  0  0  0  0  0
   13.5292   -0.9607   -2.1409 N   0  0  0  0  0  0  0  0  0  0  0  0
   12.8225   -2.6060   -3.7078 C   0  0  0  0  0  0  0  0  0  0  0  0
   13.7573   -2.0697   -2.8129 C   0  0  0  0  0  0  0  0  0  0  0  0
   15.2790   -2.8959   -2.7440 S   0  0  0  0  0  0  0  0  0  0  0  0
   16.1406   -1.8396   -1.5626 C   0  0  0  0  0  0  0  0  0  0  0  0
   15.6292   -1.8604   -0.1230 C   0  0  0  0  0  0  0  0  0  0  0  0
   15.9224   -0.9293    0.5889 O   0  0  0  0  0  0  0  0  0  0  0  0
   14.9758   -2.9487    0.3041 N   0  0  0  0  0  0  0  0  0  0  0  0
   14.4933   -3.1152    1.6537 C   0  0  0  0  0  0  0  0  0  0  0  0
  2  1  2  0
  3  2  1  0
  4  1  1  0
  5  4  2  0
  6  5  1  0
  6  3  2  0
  7  5  1  0
  8  7  2  0
  9  7  1  0
 10  8  1  0
 11 10  2  0
 11  9  1  0
 12  1  1  0
 13 11  1  0
 14 12  1  0
 15 13  1  0
 16 15  1  0
 17 16  1  0
 18 17  1  0
 19 18  2  0
 20 18  1  0
 21 19  1  0
 22 20  2  0
 23 22  1  0
 23 21  2  0
 24 23  1  0
 25 24  1  0
 26 25  1  0
 27 26  2  0
 28 26  1  0
 29 28  1  0
M  END
>  <SMILES>  (34) 
CNC(=O)CSc1ccc(CCCOc2nnc(-c3cccc(OC)c3)[nH]2)cn1

>  <scaffold>  (34) 
benzene

$$$$

     RDKit          3D

 25 27  0  0  0  0  0  0  0  0999 V2000
    0.0000    0.0000    0.0000 C   0  0  0  0  0  0  0  0  0  0  0  0
   -0.0000    0.0000    1.3862 C   0  0  0  0  0  0  0  0  0  0  0  0
    1.2042    0.0000    2.0726 C   0  0  0  0  0  0  0  0  0  0  0  0
    1.2320   -0.0000   -0.6353 C   0  0  0  0  0  0  0  0  0  0  0  0
    2.4640    0.0000    0.0000 C   0  0  0  0  0  0  0  0  0  0  0  0
    2.3971   -0.0592    1.3913 C   0  0  0  0  0  0  0  0  0  0  0  0
    1.1698   -0.0622   -2.3562 Cl  0  0  0  0  0  0  0  0  0  0  0  0
    3.7647    0.0539   -0.7314 C   0  0  0  0  0  0  0  0  0  0  0  0
    3.9609   -0.1269    2.2670 S   0  0  0  0  0  0  0  0  0  0  0  0
    3.9018   -1.9132    2.7275 C   0  0  0  0  0  0  0  0  0  0  0  0
    3.7606   -2.7654    1.5199 C   0  0  0  0  0  0  0  0  0  0  0  0
    2.5358   -3.0517    1.1314 N   0  0  0  0  0  0  0  0  0  0  0  0
    4.8728   -3.1149    0.7700 C   0  0  0  0  0  0  0  0  0  0  0  0
    2.3612   -3.7735    0.0259 C   0  0  0  0  0  0  0  0  0  0  0  0
    4.6858   -3.8709   -0.3767 C   0  0  0  0  0  0  0  0  0  0  0  0
    3.4030   -4.2503   -0.7543 C   0  0  0  0  0  0  0  0  0  0  0  0
    1.0742   -3.9565   -0.2966 O   0  0  0  0  0  0  0  0  0  0  0  0
    0.7346   -4.9824   -1.1647 C   0  0  0  0  0  0  0  0  0  0  0  0
    1.1204   -6.3101   -0.9859 C   0  0  0  0  0  0  0  0  0  0  0  0
   -0.1259   -4.6744   -2.2174 C   0  0  0  0  0  0  0  0  0  0  0  0
    0.7148   -7.3107   -1.8552 C   0  0  0  0  0  0  0  0  0  0  0  0
   -0.5235   -5.6560   -3.0623 C   0  0  0  0  0  0  0  0  0  0  0  0
   -0.1376   -6.9734   -2.8843 C   0  0  0  0  0  0  0  0  0  0  0  0
   -0.5673   -7.8665   -3.8421 O   0  0  0  0  0  0  0  0  0  0  0  0
   -0.1219   -9.2032   -3.7835 C   0  0  0  0  0  0  0  0  0  0  0  0
  2  1  2  0
  3  2  1  0
  4  1  1  0
  5  4  2  0
  6  5  1  0
  6  3  2  0
  7  4  1  0
  8  5  1  0
  9  6  1  0
 10  9  1  0
 11 10  1  0
 12 11  2  0
 13 11  1  0
 14 12  1  0
 15 13  2  0
 16 15  1  0
 16 14  2  0
 17 14  1  0
 18 17  1  0
 19 18  2  0
 20 18  1  0
 21 19  1  0
 22 20  2  0
 23 21  2  0
 23 22  1  0
 24 23  1  0
 25 24  1  0
M  END
>  <SMILES>  (35) 
COc1ccc(Oc2cccc(CSc3cccc(Cl)c3C)n2)cc1

>  <scaffold>  (35) 
benzene

$$$$

     RDKit          3D

 28 30  0  0  0  0  0  0  0  0999 V2000
    0.0000   -0.0000   -0.0000 C   0  0  0  0  0  0  0  0  0  0  0  0
    0.0000   -0.0000    1.3941 C   0  0  0  0  0  0  0  0  0  0  0  0
    1.2223    0.0000    2.0645 C   0  0  0  0  0  0  0  0  0  0  0  0
    1.1585    0.0000   -0.7465 C   0  0  0  0  0  0  0  0  0  0  0  0
    2.3237   -0.0000    0.0043 C   0  0  0  0  0  0  0  0  0  0  0  0
    2.4570   -0.0000    1.3840 C   0  0  0  0  0  0  0  0  0  0  0  0
    3.4875    0.0489   -0.6875 F   0  0  0  0  0  0  0  0  0  0  0  0
   -1.1453   -0.0000    2.1322 N   0  0  0  0  0  0  0  0  0  0  0  0
   -2.3357    0.0000    1.5183 N   0  0  0  0  0  0  0  0  0  0  0  0
   -3.3848   -0.0462    2.2492 C   0  0  0  0  0  0  0  0  0  0  0  0
   -4.6978    0.0040    1.6333 C   0  0  0  0  0  0  0  0  0  0  0  0
   -5.6593   -0.1072    2.5369 N   0  0  0  0  0  0  0  0  0  0  0  0
   -4.9457    0.1637    0.2708 C   0  0  0  0  0  0  0  0  0  0  0  0
   -6.8906   -0.0242    2.1006 C   0  0  0  0  0  0  0  0  0  0  0  0
   -6.2424    0.2494   -0.1882 C   0  0  0  0  0  0  0  0  0  0  0  0
   -7.2783    0.1699    0.7756 C   0  0  0  0  0  0  0  0  0  0  0  0
   -8.5193    0.3086    0.2915 O   0  0  0  0  0  0  0  0  0  0  0  0
   -9.5611   -0.0513    1.1582 C   0  0  0  0  0  0  0  0  0  0  0  0
  -10.6170    0.8676    1.2393 C   0  0  0  0  0  0  0  0  0  0  0  0
   -9.6970   -1.2749    1.7952 C   0  0  0  0  0  0  0  0  0  0  0  0
  -11.6867    0.5331    2.0414 C   0  0  0  0  0  0  0  0  0  0  0  0
  -10.7787   -1.6043    2.6107 C   0  0  0  0  0  0  0  0  0  0  0  0
  -11.8058   -0.6439    2.7791 C   0  0  0  0  0  0  0  0  0  0  0  0
  -10.8440   -2.7756    3.2410 O   0  0  0  0  0  0  0  0  0  0  0  0
  -12.9976   -0.9793    3.5832 C   0  0  0  0  0  0  0  0  0  0  0  0
  -13.2229   -1.9833    4.2164 O   0  0  0  0  0  0  0  0  0  0  0  0
  -13.8925    0.0060    3.5426 O   0  0  0  0  0  0  0  0  0  0  0  0
  -15.0695   -0.1751    4.3277 C   0  0  0  0  0  0  0  0  0  0  0  0
  2  1  2  0
  3  2  1  0
  4  1  1  0
  5  4  2  0
  6  5  1  0
  6  3  2  0
  7  5  1  0
  8  2  1  0
  9  8  1  0
 10  9  2  0
 11 10  1  0
 12 11  2  0
 13 11  1  0
 14 12  1  0
 15 13  2  0
 16 15  1  0
 16 14  2  0
 17 16  1  0
 18 17  1  0
 19 18  2  0
 20 18  1  0
 21 19  1  0
 22 20  2  0
 23 21  2  0
 23 22  1  0
 24 22  1  0
 25 23  1  0
 26 25  2  0
 27 25  1  0
 28 27  1  0
M  END
>  <SMILES>  (36) 
COC(=O)c1ccc(Oc2ccc(C=NNc3ccc(F)cc3)nc2)cc1O

>  <scaffold>  (36) 
benzene

$$$$

     RDKit          3D

 27 29  0  0  0  0  0  0  0  0999 V2000
   -0.0000   -0.0000   -0.0000 C   0  0  0  0  0  0  0  0  0  0  0  0
    0.0000   -0.0000    1.3941 C   0  0  0  0  0  0  0  0  0  0  0  0
    1.1996   -0.0000    2.1044 C   0  0  0  0  0  0  0  0  0  0  0  0
    1.2250   -0.0000   -0.6317 C   0  0  0  0  0  0  0  0  0  0  0  0
    2.3968   -0.0000    0.1235 C   0  0  0  0  0  0  0  0  0  0  0  0
    2.2628   -0.0000    1.5111 C   0  0  0  0  0  0  0  0  0  0  0  0
   -1.1786   -0.0000    2.1536 N   0  0  0  0  0  0  0  0  0  0  0  0
   -2.4745    0.0000    1.7585 C   0  0  0  0  0  0  0  0  0  0  0  0
   -1.1303   -0.0483    3.4912 N   0  0  0  0  0  0  0  0  0  0  0  0
   -3.2308    0.0534    2.8905 C   0  0  0  0  0  0  0  0  0  0  0  0
   -2.3426    0.0157    3.8948 N   0  0  0  0  0  0  0  0  0  0  0  0
    3.8978    0.0622   -0.7205 Cl  0  0  0  0  0  0  0  0  0  0  0  0
   -4.7115    0.0223    3.1401 C   0  0  0  0  0  0  0  0  0  0  0  0
   -5.2844   -1.2527    2.8175 O   0  0  0  0  0  0  0  0  0  0  0  0
   -5.4955   -1.5500    1.5287 C   0  0  0  0  0  0  0  0  0  0  0  0
   -5.2342   -0.8115    0.6088 O   0  0  0  0  0  0  0  0  0  0  0  0
   -6.0328   -2.9198    1.4088 C   0  0  0  0  0  0  0  0  0  0  0  0
   -6.8559   -3.1815    0.1484 C   0  0  0  0  0  0  0  0  0  0  0  0
   -7.1893   -4.6441   -0.0282 C   0  0  0  0  0  0  0  0  0  0  0  0
   -6.6601   -5.3996   -1.0522 C   0  0  0  0  0  0  0  0  0  0  0  0
   -8.0125   -5.2654    0.9217 C   0  0  0  0  0  0  0  0  0  0  0  0
   -6.9566   -6.7505   -1.1448 C   0  0  0  0  0  0  0  0  0  0  0  0
   -8.3035   -6.6094    0.8289 C   0  0  0  0  0  0  0  0  0  0  0  0
   -7.7796   -7.3985   -0.2369 C   0  0  0  0  0  0  0  0  0  0  0  0
   -8.0983   -8.7145   -0.1922 O   0  0  0  0  0  0  0  0  0  0  0  0
   -7.6632   -9.5887   -1.2431 C   0  0  0  0  0  0  0  0  0  0  0  0
   -8.5112   -9.4261   -2.5036 C   0  0  0  0  0  0  0  0  0  0  0  0
  2  1  2  0
  3  2  1  0
  4  1  1  0
  5  4  2  0
  6  5  1  0
  6  3  2  0
  7  2  1  0
  8  7  1  0
  9  7  1  0
 10  8  2  0
 11 10  1  0
 11  9  2  0
 12  5  1  0
 13 10  1  0
 14 13  2  0
 15 14  1  0
 16 15  2  0
 17 15  1  0
 18 17  1  0
 19 18  1  0
 20 19  2  0
 21 19  1  0
 22 20  1  0
 23 21  2  0
 24 23  1  0
 24 22  2  0
 25 24  1  0
 26 25  1  0
 27 26  1  0
M  CHG  2   6  -1  14   1
M  END
>  <SMILES>  (37) 
CCOc1ccc(CCC(=O)[O+]=Cc2cn(-c3c[c-]c(Cl)cc3)nn2)cc1

>  <scaffold>  (37) 
benzene

$$$$

     RDKit          3D

 23 25  0  0  0  0  0  0  0  0999 V2000
   -0.0000   -0.0000    0.0000 C   0  0  0  0  0  0  0  0  0  0  0  0
    0.0000   -0.0000    1.3862 C   0  0  0  0  0  0  0  0  0  0  0  0
    1.2042   -0.0000    2.0726 C   0  0  0  0  0  0  0  0  0  0  0  0
    1.1990    0.0589   -0.6931 C   0  0  0  0  0  0  0  0  0  0  0  0
    2.4366    0.1197   -0.0541 C   0  0  0  0  0  0  0  0  0  0  0  0
    2.4387    0.0608    1.3308 C   0  0  0  0  0  0  0  0  0  0  0  0
    3.6755    0.2336   -0.8329 C   0  0  0  0  0  0  0  0  0  0  0  0
    3.9862    1.2537   -1.7926 C   0  0  0  0  0  0  0  0  0  0  0  0
    4.7493   -0.5990   -0.7315 C   0  0  0  0  0  0  0  0  0  0  0  0
    5.2302    0.9241   -2.3076 C   0  0  0  0  0  0  0  0  0  0  0  0
    5.6742   -0.2014   -1.6497 O   0  0  0  0  0  0  0  0  0  0  0  0
    3.2435    2.3771   -2.1529 C   0  0  0  0  0  0  0  0  0  0  0  0
    2.6264    3.2997   -2.4442 N   0  0  0  0  0  0  0  0  0  0  0  0
    5.9921    1.5935   -3.2058 N   0  0  0  0  0  0  0  0  0  0  0  0
    5.0535   -1.8505    0.0411 C   0  0  0  0  0  0  0  0  0  0  0  0
    7.1090    0.9575   -3.8794 C   0  0  0  0  0  0  0  0  0  0  0  0
    6.6969    0.1893   -5.0814 C   0  0  0  0  0  0  0  0  0  0  0  0
    5.6734   -0.7017   -5.2033 C   0  0  0  0  0  0  0  0  0  0  0  0
    7.4167    0.3599   -6.1979 O   0  0  0  0  0  0  0  0  0  0  0  0
    5.7614   -1.1678   -6.5142 C   0  0  0  0  0  0  0  0  0  0  0  0
    6.8756   -0.4824   -7.1222 C   0  0  0  0  0  0  0  0  0  0  0  0
    7.5228   -0.5403   -8.4478 C   0  0  0  0  0  0  0  0  0  0  0  0
    7.1440   -1.3587   -9.2621 O   0  0  0  0  0  0  0  0  0  0  0  0
  2  1  2  0
  3  2  1  0
  4  1  1  0
  5  4  2  0
  6  5  1  0
  6  3  2  0
  7  5  1  0
  8  7  1  0
  9  7  2  0
 10  8  2  0
 11 10  1  0
 11  9  1  0
 12  8  1  0
 13 12  3  0
 14 10  1  0
 15  9  1  0
 16 14  1  0
 17 16  1  0
 18 17  2  0
 19 17  1  0
 20 18  1  0
 21 20  2  0
 21 19  1  0
 22 21  1  0
 23 22  2  0
M  END
>  <SMILES>  (38) 
Cc1oc(NCc2ccc(C=O)o2)c(C#N)c1-c1ccccc1

>  <scaffold>  (38) 
benzene

$$$$

     RDKit          3D

 29 31  0  0  0  0  0  0  0  0999 V2000
   -0.0000    0.0000    0.0000 C   0  0  0  0  0  0  0  0  0  0  0  0
    0.0000   -0.0000    1.4021 C   0  0  0  0  0  0  0  0  0  0  0  0
    1.2403    0.0000    2.0561 C   0  0  0  0  0  0  0  0  0  0  0  0
    1.1922    0.0586   -0.6891 C   0  0  0  0  0  0  0  0  0  0  0  0
    2.4297    0.1194   -0.0502 C   0  0  0  0  0  0  0  0  0  0  0  0
    2.3614    0.1160    1.3503 C   0  0  0  0  0  0  0  0  0  0  0  0
   -1.1453   -0.0000    2.1402 N   0  0  0  0  0  0  0  0  0  0  0  0
    3.6567    0.2300   -0.7027 N   0  0  0  0  0  0  0  0  0  0  0  0
   -2.4572    0.2609    1.5991 C   0  0  0  0  0  0  0  0  0  0  0  0
   -2.7389    1.7127    1.3917 C   0  0  0  0  0  0  0  0  0  0  0  0
   -3.1153    2.6433    2.3014 C   0  0  0  0  0  0  0  0  0  0  0  0
   -2.5577    2.3180    0.1845 N   0  0  0  0  0  0  0  0  0  0  0  0
   -3.1895    3.8285    1.6019 N   0  0  0  0  0  0  0  0  0  0  0  0
   -2.8360    3.5806    0.3342 C   0  0  0  0  0  0  0  0  0  0  0  0
    3.8999    0.2999   -2.0576 C   0  0  0  0  0  0  0  0  0  0  0  0
    3.0420    0.2741   -2.9177 O   0  0  0  0  0  0  0  0  0  0  0  0
   -3.6018    5.0786    2.1298 C   0  0  0  0  0  0  0  0  0  0  0  0
   -2.9276    5.6206    3.2028 C   0  0  0  0  0  0  0  0  0  0  0  0
   -4.7263    5.7065    1.5961 C   0  0  0  0  0  0  0  0  0  0  0  0
   -3.3976    6.8198    3.7152 C   0  0  0  0  0  0  0  0  0  0  0  0
   -5.1932    6.8974    2.1093 C   0  0  0  0  0  0  0  0  0  0  0  0
   -4.4594    7.4969    3.1552 C   0  0  0  0  0  0  0  0  0  0  0  0
    5.2310    0.3482   -2.3053 N   0  0  0  0  0  0  0  0  0  0  0  0
   -6.2434    7.6292    1.6424 O   0  0  0  0  0  0  0  0  0  0  0  0
   -6.9129    7.1031    0.5183 C   0  0  0  0  0  0  0  0  0  0  0  0
    5.7127    0.5856   -3.6356 C   0  0  0  0  0  0  0  0  0  0  0  0
    6.3470    1.9673   -3.7875 C   0  0  0  0  0  0  0  0  0  0  0  0
    6.8780    2.2258   -5.0592 O   0  0  0  0  0  0  0  0  0  0  0  0
    5.9422    2.4153   -6.0750 C   0  0  0  0  0  0  0  0  0  0  0  0
  2  1  2  0
  3  2  1  0
  4  1  1  0
  5  4  2  0
  6  5  1  0
  6  3  2  0
  7  2  1  0
  8  5  1  0
  9  7  1  0
 10  9  1  0
 11 10  2  0
 12 10  1  0
 13 11  1  0
 14 13  1  0
 14 12  2  0
 15  8  1  0
 16 15  2  0
 17 13  1  0
 18 17  2  0
 19 17  1  0
 20 18  1  0
 21 19  2  0
 22 21  1  0
 22 20  2  0
 23 15  1  0
 24 21  1  0
 25 24  1  0
 26 23  1  0
 27 26  1  0
 28 27  1  0
 29 28  1  0
M  END
>  <SMILES>  (39) 
COCCNC(=O)Nc1ccc(NCc2cn(-c3cccc(OC)c3)cn2)cc1

>  <scaffold>  (39) 
benzene

$$$$

     RDKit          3D

 20 21  0  0  0  0  0  0  0  0999 V2000
   -0.0000    0.0000    0.0000 C   0  0  0  0  0  0  0  0  0  0  0  0
   -0.0000   -0.0000    1.3941 C   0  0  0  0  0  0  0  0  0  0  0  0
    1.1974   -0.0000    2.0767 C   0  0  0  0  0  0  0  0  0  0  0  0
    1.1585   -0.0000   -0.7465 C   0  0  0  0  0  0  0  0  0  0  0  0
    2.3644   -0.0592   -0.0495 C   0  0  0  0  0  0  0  0  0  0  0  0
    2.3637   -0.1149    1.3355 C   0  0  0  0  0  0  0  0  0  0  0  0
   -1.2320   -0.0000    2.0294 N   0  0  0  0  0  0  0  0  0  0  0  0
    1.2876   -0.0535   -2.1098 O   0  0  0  0  0  0  0  0  0  0  0  0
   -1.5410   -0.1574    3.3552 C   0  0  0  0  0  0  0  0  0  0  0  0
   -0.6343   -0.3454    4.2804 N   0  0  0  0  0  0  0  0  0  0  0  0
   -2.8994   -0.0595    3.7510 C   0  0  0  0  0  0  0  0  0  0  0  0
   -0.9704   -0.5334    5.5005 N   0  0  0  0  0  0  0  0  0  0  0  0
   -3.2635   -0.2595    5.0651 C   0  0  0  0  0  0  0  0  0  0  0  0
   -2.2311   -0.5466    5.8796 C   0  0  0  0  0  0  0  0  0  0  0  0
    0.0732   -0.1153   -2.8079 C   0  0  0  0  0  0  0  0  0  0  0  0
   -4.9201   -0.0670    5.4981 Cl  0  0  0  0  0  0  0  0  0  0  0  0
   -2.4656   -0.8083    7.1960 N   0  0  0  0  0  0  0  0  0  0  0  0
   -1.4770   -0.5715    8.2083 C   0  0  0  0  0  0  0  0  0  0  0  0
   -1.1072    0.9021    8.3695 C   0  0  0  0  0  0  0  0  0  0  0  0
   -0.1532    1.2839    9.0051 O   0  0  0  0  0  0  0  0  0  0  0  0
  2  1  1  0
  3  2  1  0
  4  1  2  0
  5  4  1  0
  6  5  1  0
  6  3  2  0
  7  2  2  0
  8  4  1  0
  9  7  1  0
 10  9  2  0
 11  9  1  0
 12 10  1  0
 13 11  2  0
 14 13  1  0
 14 12  2  0
 15  8  1  0
 16 13  1  0
 17 14  1  0
 18 17  1  0
 19 18  1  0
 20 19  3  0
M  CHG  2   5  -1  20   1
M  END
>  <SMILES>  (40) 
COc1cc(=Nc2cc(Cl)c(NCC#[O+])nn2)cc[cH-]1

>  <scaffold>  (40) 
benzene

$$$$

     RDKit          3D

 23 25  0  0  0  0  0  0  0  0999 V2000
   -0.0000    0.0000    0.0000 C   0  0  0  0  0  0  0  0  0  0  0  0
   -0.0000    0.0000    1.3862 C   0  0  0  0  0  0  0  0  0  0  0  0
    1.2042    0.0000    2.0726 C   0  0  0  0  0  0  0  0  0  0  0  0
    1.1585    0.0000   -0.7465 C   0  0  0  0  0  0  0  0  0  0  0  0
    2.3976    0.0000   -0.1076 C   0  0  0  0  0  0  0  0  0  0  0  0
    2.3976   -0.0000    1.2945 C   0  0  0  0  0  0  0  0  0  0  0  0
   -1.1194    0.0000    2.1075 F   0  0  0  0  0  0  0  0  0  0  0  0
    3.5816   -0.0497   -0.8114 N   0  0  0  0  0  0  0  0  0  0  0  0
    3.5811   -0.0995   -2.1270 N   0  0  0  0  0  0  0  0  0  0  0  0
    4.7032   -0.0984   -2.7415 C   0  0  0  0  0  0  0  0  0  0  0  0
    4.7527   -0.0997   -4.1589 C   0  0  0  0  0  0  0  0  0  0  0  0
    3.7669   -0.1021   -5.1221 C   0  0  0  0  0  0  0  0  0  0  0  0
    5.9767   -0.0491   -4.7730 O   0  0  0  0  0  0  0  0  0  0  0  0
    4.3656   -0.0479   -6.3799 C   0  0  0  0  0  0  0  0  0  0  0  0
    5.6855   -0.0116   -6.0797 C   0  0  0  0  0  0  0  0  0  0  0  0
    6.6912    0.0958   -6.9577 O   0  0  0  0  0  0  0  0  0  0  0  0
    8.0115    0.1646   -6.4671 C   0  0  0  0  0  0  0  0  0  0  0  0
    8.5133   -1.1232   -5.8577 C   0  0  0  0  0  0  0  0  0  0  0  0
    9.7289   -1.0496   -5.1791 C   0  0  0  0  0  0  0  0  0  0  0  0
    7.8286   -2.3115   -5.9943 C   0  0  0  0  0  0  0  0  0  0  0  0
   10.2566   -2.2232   -4.6428 C   0  0  0  0  0  0  0  0  0  0  0  0
    8.3448   -3.4575   -5.4683 C   0  0  0  0  0  0  0  0  0  0  0  0
    9.5775   -3.4292   -4.7194 C   0  0  0  0  0  0  0  0  0  0  0  0
  2  1  2  0
  3  2  1  0
  4  1  1  0
  5  4  2  0
  6  5  1  0
  6  3  2  0
  7  2  1  0
  8  5  1  0
  9  8  1  0
 10  9  2  0
 11 10  1  0
 12 11  2  0
 13 11  1  0
 14 12  1  0
 15 14  2  0
 15 13  1  0
 16 15  1  0
 17 16  1  0
 18 17  1  0
 19 18  2  0
 20 18  1  0
 21 19  1  0
 22 20  2  0
 23 22  1  0
 23 21  2  0
M  END
>  <SMILES>  (41) 
Fc1ccc(NN=Cc2ccc(OCc3ccccc3)o2)cc1

>  <scaffold>  (41) 
benzene

$$$$

     RDKit          3D

 17 18  0  0  0  0  0  0  0  0999 V2000
    0.0000    0.0000    0.0000 C   0  0  0  0  0  0  0  0  0  0  0  0
    0.0000   -0.0000    1.3941 C   0  0  0  0  0  0  0  0  0  0  0  0
    1.1860   -0.0000    2.0963 C   0  0  0  0  0  0  0  0  0  0  0  0
    1.2320   -0.0000   -0.6353 C   0  0  0  0  0  0  0  0  0  0  0  0
    2.4039   -0.0000    0.1198 C   0  0  0  0  0  0  0  0  0  0  0  0
    2.4039    0.0000    1.5139 C   0  0  0  0  0  0  0  0  0  0  0  0
   -1.1194    0.0000   -0.7213 F   0  0  0  0  0  0  0  0  0  0  0  0
    3.6252    0.0506   -0.5669 N   0  0  0  0  0  0  0  0  0  0  0  0
    4.8242   -0.5079   -0.2397 C   0  0  0  0  0  0  0  0  0  0  0  0
    3.7085    0.7263   -1.7382 N   0  0  0  0  0  0  0  0  0  0  0  0
    5.7161   -0.1062   -1.2331 C   0  0  0  0  0  0  0  0  0  0  0  0
    4.9486    0.6714   -2.1535 C   0  0  0  0  0  0  0  0  0  0  0  0
    7.0832   -0.3549   -1.3456 N   0  0  0  0  0  0  0  0  0  0  0  0
    4.9958   -1.3538    0.8146 N   0  0  0  0  0  0  0  0  0  0  0  0
    7.9511   -0.3003   -0.3067 C   0  0  0  0  0  0  0  0  0  0  0  0
    7.6918    0.0178    0.8296 O   0  0  0  0  0  0  0  0  0  0  0  0
    9.1497   -0.6472   -0.7934 O   0  0  0  0  0  0  0  0  0  0  0  0
  2  1  2  0
  3  2  1  0
  4  1  1  0
  5  4  2  0
  6  5  1  0
  6  3  2  0
  7  1  1  0
  8  5  1  0
  9  8  1  0
 10  8  1  0
 11  9  2  0
 12 10  2  0
 12 11  1  0
 13 11  1  0
 14  9  1  0
 15 13  1  0
 16 15  2  0
 17 15  1  0
M  END
>  <SMILES>  (42) 
Nc1c(NC(=O)O)cnn1-c1cccc(F)c1

>  <scaffold>  (42) 
benzene

$$$$

     RDKit          3D

 31 32  0  0  0  0  0  0  0  0999 V2000
   -0.0000   -0.0000    0.0000 C   0  0  0  0  0  0  0  0  0  0  0  0
   -0.0000   -0.0000    1.3862 C   0  0  0  0  0  0  0  0  0  0  0  0
    1.2154    0.0000    2.0527 C   0  0  0  0  0  0  0  0  0  0  0  0
    1.1990   -0.0589   -0.6931 C   0  0  0  0  0  0  0  0  0  0  0  0
    2.4295   -0.1194   -0.0578 C   0  0  0  0  0  0  0  0  0  0  0  0
    2.4317   -0.0605    1.3271 C   0  0  0  0  0  0  0  0  0  0  0  0
   -1.1054   -0.0543    2.1810 O   0  0  0  0  0  0  0  0  0  0  0  0
    3.5353   -0.2269   -0.8466 O   0  0  0  0  0  0  0  0  0  0  0  0
    4.7613   -0.6462   -0.2503 C   0  0  0  0  0  0  0  0  0  0  0  0
   -2.3572   -0.1158    1.5346 C   0  0  0  0  0  0  0  0  0  0  0  0
    5.6912   -1.0221   -1.3682 C   0  0  0  0  0  0  0  0  0  0  0  0
    6.7472   -0.2597   -1.5600 N   0  0  0  0  0  0  0  0  0  0  0  0
    5.4128   -2.0882   -2.2484 C   0  0  0  0  0  0  0  0  0  0  0  0
    7.5408   -0.5170   -2.5299 N   0  0  0  0  0  0  0  0  0  0  0  0
    6.2720   -2.3648   -3.2899 C   0  0  0  0  0  0  0  0  0  0  0  0
    7.3616   -1.5135   -3.3596 C   0  0  0  0  0  0  0  0  0  0  0  0
    8.1930   -1.7162   -4.3900 O   0  0  0  0  0  0  0  0  0  0  0  0
    9.2743   -0.7823   -4.5191 C   0  0  0  0  0  0  0  0  0  0  0  0
    8.8338    0.5444   -5.1356 C   0  0  0  0  0  0  0  0  0  0  0  0
    9.9708    1.5223   -5.4274 C   0  0  2  0  0  0  0  0  0  0  0  0
   10.6760    1.9188   -4.1313 C   0  0  0  0  0  0  0  0  0  0  0  0
    9.4905    2.7676   -6.1709 C   0  0  0  0  0  0  0  0  0  0  0  0
   10.5998    3.7531   -6.5352 C   0  0  0  0  0  0  0  0  0  0  0  0
   10.0755    4.9523   -7.3235 C   0  0  0  0  0  0  0  0  0  0  0  0
   11.1377    5.9959   -7.6655 C   0  0  0  0  0  0  0  0  0  0  0  0
   10.5741    7.1454   -8.4993 C   0  0  0  0  0  0  0  0  0  0  0  0
   11.5851    8.2445   -8.8222 C   0  0  0  0  0  0  0  0  0  0  0  0
   10.9589    9.3944   -9.6096 C   0  0  0  0  0  0  0  0  0  0  0  0
   11.9362   10.4889  -10.0029 C   0  0  0  0  0  0  0  0  0  0  0  0
   11.2724   11.5859  -10.8337 C   0  0  0  0  0  0  0  0  0  0  0  0
   12.3186   12.6433  -11.2531 C   0  0  0  0  0  0  0  0  0  0  0  0
  2  1  2  0
  3  2  1  0
  4  1  1  0
  5  4  2  0
  6  5  1  0
  6  3  2  0
  7  2  1  0
  8  5  1  0
  9  8  1  0
 10  7  1  0
 11  9  1  0
 12 11  2  0
 13 11  1  0
 14 12  1  0
 15 13  2  0
 16 15  1  0
 16 14  2  0
 17 16  1  0
 18 17  1  0
 19 18  1  0
 20 19  1  0
 20 21  1  1
 22 20  1  0
 23 22  1  0
 24 23  1  0
 25 24  1  0
 26 25  1  0
 27 26  1  0
 28 27  1  0
 29 28  1  0
 30 29  1  0
 31 30  1  0
M  END
>  <SMILES>  (43) 
CCCCCCCCCCC(C)CCOc1ccc(COc2ccc(OC)cc2)nn1

>  <scaffold>  (43) 
benzene

$$$$

     RDKit          3D

 21 22  0  0  0  0  0  0  0  0999 V2000
   -0.0000    0.0000    0.0000 C   0  0  0  0  0  0  0  0  0  0  0  0
    0.0000    0.0000    1.3862 C   0  0  0  0  0  0  0  0  0  0  0  0
    1.2042   -0.0000    2.0726 C   0  0  0  0  0  0  0  0  0  0  0  0
    1.1922    0.0586   -0.6891 C   0  0  0  0  0  0  0  0  0  0  0  0
    2.4297    0.1194   -0.0502 C   0  0  0  0  0  0  0  0  0  0  0  0
    2.4319    0.0602    1.3427 C   0  0  0  0  0  0  0  0  0  0  0  0
   -1.1719    0.0576    2.0635 F   0  0  0  0  0  0  0  0  0  0  0  0
    3.6476    0.1294   -0.6953 N   0  0  0  0  0  0  0  0  0  0  0  0
    3.7959    0.5388   -2.0709 C   0  0  0  0  0  0  0  0  0  0  0  0
    3.5373    1.9959   -2.2706 C   0  0  0  0  0  0  0  0  0  0  0  0
    4.1071    2.9446   -1.5855 N   0  0  0  0  0  0  0  0  0  0  0  0
    2.6318    2.4889   -3.1852 N   0  0  0  0  0  0  0  0  0  0  0  0
    3.5769    4.1217   -2.0213 C   0  0  0  0  0  0  0  0  0  0  0  0
    2.6927    3.8349   -2.9820 C   0  0  0  0  0  0  0  0  0  0  0  0
    1.8044    1.8372   -4.1714 C   0  0  0  0  0  0  0  0  0  0  0  0
    2.5839    1.5873   -5.4615 C   0  0  0  0  0  0  0  0  0  0  0  0
    1.6825    0.8490   -6.4498 C   0  0  0  0  0  0  0  0  0  0  0  0
    2.4346    0.5261   -7.7400 C   0  0  0  0  0  0  0  0  0  0  0  0
    1.5089   -0.2571   -8.6695 C   0  0  0  0  0  0  0  0  0  0  0  0
    2.2331   -0.6528   -9.9553 C   0  0  0  0  0  0  0  0  0  0  0  0
    1.2840   -1.4776  -10.8232 C   0  0  0  0  0  0  0  0  0  0  0  0
  2  1  2  0
  3  2  1  0
  4  1  1  0
  5  4  2  0
  6  5  1  0
  6  3  2  0
  7  2  1  0
  8  5  1  0
  9  8  1  0
 10  9  1  0
 11 10  2  0
 12 10  1  0
 13 11  1  0
 14 13  2  0
 14 12  1  0
 15 12  1  0
 16 15  1  0
 17 16  1  0
 18 17  1  0
 19 18  1  0
 20 19  1  0
 21 20  1  0
M  END
>  <SMILES>  (44) 
CCCCCCCn1ccnc1CNc1ccc(F)cc1

>  <scaffold>  (44) 
benzene

$$$$

     RDKit          3D

 29 31  0  0  0  0  0  0  0  0999 V2000
   -0.0000   -0.0000    0.0000 C   0  0  0  0  0  0  0  0  0  0  0  0
   -0.0000    0.0000    1.3862 C   0  0  0  0  0  0  0  0  0  0  0  0
    1.1928    0.0000    2.0924 C   0  0  0  0  0  0  0  0  0  0  0  0
    1.1585   -0.0000   -0.7465 C   0  0  0  0  0  0  0  0  0  0  0  0
    2.3304   -0.0000    0.0086 C   0  0  0  0  0  0  0  0  0  0  0  0
    2.3304   -0.0000    1.4027 C   0  0  0  0  0  0  0  0  0  0  0  0
    3.5532   -0.0538   -0.6250 O   0  0  0  0  0  0  0  0  0  0  0  0
   -1.2041   -0.0000    2.0071 F   0  0  0  0  0  0  0  0  0  0  0  0
    3.6879    0.0129   -2.0271 C   0  0  0  0  0  0  0  0  0  0  0  0
    5.1619    0.1063   -2.4820 C   0  0  0  0  0  0  0  0  0  0  0  0
    5.5067    0.2403   -3.8766 N   0  0  0  0  0  0  0  0  0  0  0  0
    5.0542    1.4717   -4.4773 C   0  0  0  0  0  0  0  0  0  0  0  0
    5.7787    1.6033   -5.8060 C   0  0  0  0  0  0  0  0  0  0  0  0
    5.2204    2.1378   -6.7347 O   0  0  0  0  0  0  0  0  0  0  0  0
    7.1581    1.1575   -5.8710 C   0  0  0  0  0  0  0  0  0  0  0  0
    8.1396    1.2649   -6.8100 C   0  0  0  0  0  0  0  0  0  0  0  0
    7.7098    0.5431   -4.7872 O   0  0  0  0  0  0  0  0  0  0  0  0
    9.3290    0.6927   -6.3369 C   0  0  0  0  0  0  0  0  0  0  0  0
    9.0171    0.3007   -5.1504 C   0  0  0  0  0  0  0  0  0  0  0  0
    9.8605   -0.3073   -4.1381 C   0  0  0  0  0  0  0  0  0  0  0  0
   11.1622   -0.6134   -4.4721 C   0  0  0  0  0  0  0  0  0  0  0  0
    9.3569   -0.6202   -2.8764 C   0  0  0  0  0  0  0  0  0  0  0  0
   11.9100   -1.2338   -3.4946 C   0  0  0  0  0  0  0  0  0  0  0  0
   10.1057   -1.2425   -1.9009 C   0  0  0  0  0  0  0  0  0  0  0  0
   11.4836   -1.5762   -2.2209 C   0  0  0  0  0  0  0  0  0  0  0  0
   12.0988   -2.2267   -1.2042 O   0  0  0  0  0  0  0  0  0  0  0  0
   13.4171   -2.6001   -1.5706 C   0  0  0  0  0  0  0  0  0  0  0  0
   13.8970   -3.3553   -0.3322 C   0  0  0  0  0  0  0  0  0  0  0  0
   13.1896   -4.6796   -0.0490 C   0  0  0  0  0  0  0  0  0  0  0  0
  2  1  2  0
  3  2  1  0
  4  1  1  0
  5  4  2  0
  6  5  1  0
  6  3  2  0
  7  5  1  0
  8  2  1  0
  9  7  1  0
 10  9  1  0
 11 10  1  0
 12 11  1  0
 13 12  1  0
 14 13  2  0
 15 13  1  0
 16 15  2  0
 17 15  1  0
 18 16  1  0
 19 18  2  0
 19 17  1  0
 20 19  1  0
 21 20  2  0
 22 20  1  0
 23 21  1  0
 24 22  2  0
 25 24  1  0
 25 23  2  0
 26 25  1  0
 27 26  1  0
 28 27  1  0
 29 28  1  0
M  END
>  <SMILES>  (45) 
CCCOc1ccc(-c2ccc(C(=O)CNCCOc3ccc(F)cc3)o2)cc1

>  <scaffold>  (45) 
benzene

$$$$

     RDKit          3D

 31 34  0  0  0  0  0  0  0  0999 V2000
   -0.0000   -0.0000   -0.0000 C   0  0  0  0  0  0  0  0  0  0  0  0
    0.0000    0.0000    1.3704 C   0  0  0  0  0  0  0  0  0  0  0  0
    1.2181   -0.0000    2.0648 C   0  0  0  0  0  0  0  0  0  0  0  0
    1.1719    0.0000   -0.7551 C   0  0  0  0  0  0  0  0  0  0  0  0
    2.3968    0.0000   -0.1235 C   0  0  0  0  0  0  0  0  0  0  0  0
    2.5332    0.0000    1.2882 C   0  0  0  0  0  0  0  0  0  0  0  0
    3.6999    0.0483    1.9443 N   0  0  0  0  0  0  0  0  0  0  0  0
    3.8724    0.0981    3.2561 C   0  0  0  0  0  0  0  0  0  0  0  0
    2.6401    0.0361    3.9879 C   0  0  0  0  0  0  0  0  0  0  0  0
    1.3816   -0.0060    3.4674 C   0  0  0  0  0  0  0  0  0  0  0  0
    5.0535    0.1931    3.8640 N   0  0  0  0  0  0  0  0  0  0  0  0
    3.6213    0.0539   -0.9765 C   0  0  0  0  0  0  0  0  0  0  0  0
    6.2360    0.2462    3.0390 C   0  0  1  0  0  0  0  0  0  0  0  0
    6.9735    1.5463    3.3553 C   0  0  0  0  0  0  0  0  0  0  0  0
    7.1108   -0.9692    3.3422 C   0  0  0  0  0  0  0  0  0  0  0  0
    6.4385   -2.2985    2.9650 C   0  0  0  0  0  0  0  0  0  0  0  0
    7.3096   -3.4554    3.3292 C   0  0  0  0  0  0  0  0  0  0  0  0
    7.2947   -4.1221    4.5354 C   0  0  0  0  0  0  0  0  0  0  0  0
    8.3405   -4.0294    2.5571 C   0  0  0  0  0  0  0  0  0  0  0  0
    8.2807   -5.0573    4.4366 N   0  0  0  0  0  0  0  0  0  0  0  0
    8.9129   -4.9899    3.2233 N   0  0  0  0  0  0  0  0  0  0  0  0
    8.6482   -6.0331    5.3621 C   0  0  0  0  0  0  0  0  0  0  0  0
    8.1256   -6.0435    6.6545 C   0  0  0  0  0  0  0  0  0  0  0  0
    9.5905   -6.9885    4.9843 C   0  0  0  0  0  0  0  0  0  0  0  0
    8.4828   -7.0623    7.5239 C   0  0  0  0  0  0  0  0  0  0  0  0
    9.9439   -7.9896    5.8383 C   0  0  0  0  0  0  0  0  0  0  0  0
    9.3501   -8.0972    7.1770 C   0  0  0  0  0  0  0  0  0  0  0  0
    9.7624   -9.0792    8.0017 F   0  0  0  0  0  0  0  0  0  0  0  0
   10.8785   -8.9003    5.5367 O   0  0  0  0  0  0  0  0  0  0  0  0
   11.5376   -8.8478    4.3002 C   0  0  0  0  0  0  0  0  0  0  0  0
   12.5818   -9.9624    4.2579 C   0  0  0  0  0  0  0  0  0  0  0  0
  2  1  2  0
  3  2  1  0
  4  1  1  0
  5  4  2  0
  6  5  1  0
  6  3  2  0
  7  6  1  0
  8  7  2  0
  9  8  1  0
 10  9  2  0
 10  3  1  0
 11  8  1  0
 12  5  1  0
 13 11  1  0
 13 14  1  1
 15 13  1  0
 16 15  1  0
 17 16  1  0
 18 17  2  0
 19 17  1  0
 20 18  1  0
 21 20  1  0
 21 19  2  0
 22 20  1  0
 23 22  2  0
 24 22  1  0
 25 23  1  0
 26 24  2  0
 27 26  1  0
 27 25  2  0
 28 27  1  0
 29 26  1  0
 30 29  1  0
 31 30  1  0
M  END
>  <SMILES>  (46) 
CCOc1cc(-n2cc(CCC(C)Nc3ccc4cccc(C)c4n3)cn2)ccc1F

>  <scaffold>  (46) 
benzene

$$$$

     RDKit          3D

 28 30  0  0  0  0  0  0  0  0999 V2000
   -0.0000    0.0000    0.0000 C   0  0  0  0  0  0  0  0  0  0  0  0
    0.0000   -0.0000    1.3862 C   0  0  0  0  0  0  0  0  0  0  0  0
    1.2042    0.0000    2.0726 C   0  0  0  0  0  0  0  0  0  0  0  0
    1.1990   -0.0589   -0.6931 C   0  0  0  0  0  0  0  0  0  0  0  0
    2.3628   -0.1161    0.0578 C   0  0  0  0  0  0  0  0  0  0  0  0
    2.4289   -0.1193    1.4503 C   0  0  0  0  0  0  0  0  0  0  0  0
    3.5666   -0.1252    2.2422 N   0  0  0  0  0  0  0  0  0  0  0  0
   -1.2462    0.0000   -0.6426 O   0  0  0  0  0  0  0  0  0  0  0  0
   -1.4403    0.0520   -1.9437 C   0  0  0  0  0  0  0  0  0  0  0  0
    4.8495   -0.1288    1.7834 C   0  0  0  0  0  0  0  0  0  0  0  0
    5.2515   -0.1276    0.5377 N   0  0  0  0  0  0  0  0  0  0  0  0
    5.8921   -0.1914    2.7669 C   0  0  0  0  0  0  0  0  0  0  0  0
    6.8803   -0.0684    0.3899 S   0  0  0  0  0  0  0  0  0  0  0  0
    7.0936   -0.1317    2.1269 C   0  0  0  0  0  0  0  0  0  0  0  0
   -0.9023    1.1561   -2.4971 F   0  0  0  0  0  0  0  0  0  0  0  0
    5.6950   -0.2523    4.2372 C   0  0  0  0  0  0  0  0  0  0  0  0
    8.3266   -0.2105    2.6438 O   0  0  0  0  0  0  0  0  0  0  0  0
   -2.9190   -0.0265   -2.2829 C   0  0  0  0  0  0  0  0  0  0  0  0
   -3.2698   -0.0396   -3.4462 O   0  0  0  0  0  0  0  0  0  0  0  0
   -3.7253   -0.0822   -1.1956 N   0  0  0  0  0  0  0  0  0  0  0  0
   -5.1308   -0.1054   -1.0827 C   0  0  0  0  0  0  0  0  0  0  0  0
   -5.7826   -0.1098    0.1406 C   0  0  0  0  0  0  0  0  0  0  0  0
   -5.9037   -0.1323   -2.2330 C   0  0  0  0  0  0  0  0  0  0  0  0
   -7.1513   -0.0825    0.3001 C   0  0  0  0  0  0  0  0  0  0  0  0
   -7.2492   -0.1051   -2.0766 C   0  0  0  0  0  0  0  0  0  0  0  0
   -7.9440   -0.0478   -0.8462 C   0  0  0  0  0  0  0  0  0  0  0  0
   -9.2806    0.0331   -0.8166 O   0  0  0  0  0  0  0  0  0  0  0  0
  -10.0657    0.0941    0.3826 C   0  0  0  0  0  0  0  0  0  0  0  0
  2  1  2  0
  3  2  1  0
  4  1  1  0
  5  4  2  0
  6  5  1  0
  6  3  2  0
  7  6  1  0
  8  1  1  0
  9  8  1  0
 10  7  2  0
 11 10  1  0
 12 10  1  0
 13 11  2  0
 14 13  1  0
 14 12  2  0
 15  9  1  0
 16 12  1  0
 17 14  1  0
 18  9  2  0
 19 18  1  0
 20 18  1  0
 21 20  1  0
 22 21  2  0
 23 21  1  0
 24 22  1  0
 25 23  2  0
 26 25  1  0
 26 24  2  0
 27 26  1  0
 28 27  1  0
M  CHG  2  13   1  19  -1
M  END
>  <SMILES>  (47) 
COc1ccc(NC([O-])=C(F)Oc2ccc(N=C3N=[S+]C(O)=C3C)cc2)cc1

>  <scaffold>  (47) 
benzene

$$$$

     RDKit          3D

 23 25  0  0  0  0  0  0  0  0999 V2000
   -0.0000    0.0000   -0.0000 C   0  0  0  0  0  0  0  0  0  0  0  0
   -0.0000    0.0000    1.3704 C   0  0  0  0  0  0  0  0  0  0  0  0
    1.2134   -0.0000    2.0888 C   0  0  0  0  0  0  0  0  0  0  0  0
    1.1719    0.0000   -0.7551 C   0  0  0  0  0  0  0  0  0  0  0  0
    2.3968    0.0000   -0.1235 C   0  0  0  0  0  0  0  0  0  0  0  0
    2.3968    0.0000    1.2948 C   0  0  0  0  0  0  0  0  0  0  0  0
    3.6218    0.0489    1.8715 N   0  0  0  0  0  0  0  0  0  0  0  0
    3.6697    0.0046    3.1492 C   0  0  0  0  0  0  0  0  0  0  0  0
    2.5862   -0.0881    3.9831 N   0  0  0  0  0  0  0  0  0  0  0  0
    1.2980   -0.0799    3.4500 C   0  0  0  0  0  0  0  0  0  0  0  0
    0.3534   -0.1207    4.2354 O   0  0  0  0  0  0  0  0  0  0  0  0
    5.0378    0.1152    3.7373 C   0  0  0  0  0  0  0  0  0  0  0  0
    2.6902   -0.1824    5.3541 O   0  0  0  0  0  0  0  0  0  0  0  0
    3.5920   -0.0525   -0.7427 O   0  0  0  0  0  0  0  0  0  0  0  0
    3.6538   -0.1752   -2.1300 C   0  0  0  0  0  0  0  0  0  0  0  0
    3.2018   -1.3023   -2.7818 C   0  0  0  0  0  0  0  0  0  0  0  0
    4.2430    0.8596   -2.8397 C   0  0  0  0  0  0  0  0  0  0  0  0
    3.3287   -1.3985   -4.1508 C   0  0  0  0  0  0  0  0  0  0  0  0
    4.3724    0.7591   -4.2241 C   0  0  0  0  0  0  0  0  0  0  0  0
    3.9022   -0.3958   -4.9313 C   0  0  0  0  0  0  0  0  0  0  0  0
    4.0021   -0.4249   -6.2590 O   0  0  0  0  0  0  0  0  0  0  0  0
    5.0697    1.8893   -4.9438 C   0  0  0  0  0  0  0  0  0  0  0  0
    5.9728    2.6603   -4.2134 O   0  0  0  0  0  0  0  0  0  0  0  0
  2  1  2  0
  3  2  1  0
  4  1  1  0
  5  4  2  0
  6  5  1  0
  6  3  2  0
  7  6  1  0
  8  7  2  0
  9  8  1  0
 10  9  1  0
 10  3  1  0
 11 10  2  0
 12  8  1  0
 13  9  1  0
 14  5  1  0
 15 14  1  0
 16 15  2  0
 17 15  1  0
 18 16  1  0
 19 17  2  0
 20 19  1  0
 20 18  2  0
 21 20  1  0
 22 19  1  0
 23 22  1  0
M  END
>  <SMILES>  (48) 
Cc1nc2c(Oc3ccc(O)c(CO)c3)cccc2c(=O)n1O

>  <scaffold>  (48) 
benzene

$$$$

     RDKit          3D

 31 33  0  0  0  0  0  0  0  0999 V2000
    0.0000   -0.0000    0.0000 C   0  0  0  0  0  0  0  0  0  0  0  0
    0.0000   -0.0000    1.3704 C   0  0  0  0  0  0  0  0  0  0  0  0
    1.2134   -0.0000    2.0888 C   0  0  0  0  0  0  0  0  0  0  0  0
    1.2391   -0.0000   -0.6390 C   0  0  0  0  0  0  0  0  0  0  0  0
    2.4710   -0.0000   -0.0036 C   0  0  0  0  0  0  0  0  0  0  0  0
    2.4710    0.0000    1.4228 C   0  0  0  0  0  0  0  0  0  0  0  0
    3.6377   -0.0483    2.0788 N   0  0  0  0  0  0  0  0  0  0  0  0
    3.6858   -0.0041    3.3565 C   0  0  0  0  0  0  0  0  0  0  0  0
    2.5188    0.0969    4.1272 C   0  0  0  0  0  0  0  0  0  0  0  0
    1.3142    0.0902    3.4906 C   0  0  0  0  0  0  0  0  0  0  0  0
    3.6924   -0.0506   -0.6904 N   0  0  0  0  0  0  0  0  0  0  0  0
    0.2071    0.1415    4.2832 F   0  0  0  0  0  0  0  0  0  0  0  0
    3.8340   -0.5352   -1.9560 C   0  0  0  0  0  0  0  0  0  0  0  0
    3.0040   -0.9847   -2.6878 O   0  0  0  0  0  0  0  0  0  0  0  0
    5.1660   -0.4383   -2.1837 O   0  0  0  0  0  0  0  0  0  0  0  0
    5.6399   -0.8097   -3.4323 C   0  0  0  0  0  0  0  0  0  0  0  0
    5.0043   -0.6509   -4.6629 C   0  0  0  0  0  0  0  0  0  0  0  0
    6.9243   -1.3473   -3.3625 C   0  0  0  0  0  0  0  0  0  0  0  0
    5.6081   -1.0174   -5.8556 C   0  0  0  0  0  0  0  0  0  0  0  0
    7.5250   -1.7056   -4.5501 C   0  0  0  0  0  0  0  0  0  0  0  0
    6.9058   -1.5020   -5.8032 C   0  0  0  0  0  0  0  0  0  0  0  0
    7.5565   -1.8286   -6.9548 O   0  0  0  0  0  0  0  0  0  0  0  0
    7.0062   -1.7790   -8.2348 C   0  0  0  0  0  0  0  0  0  0  0  0
    5.8214   -2.7578   -8.3981 C   0  0  2  0  0  0  0  0  0  0  0  0
    4.6334   -1.9765   -8.6428 O   0  0  0  0  0  0  0  0  0  0  0  0
    5.4805   -3.7042   -7.2481 C   0  0  0  0  0  0  0  0  0  0  0  0
    4.3355   -4.6887   -7.4810 C   0  0  0  0  0  0  0  0  0  0  0  0
    3.9192   -5.6195   -6.3431 C   0  0  0  0  0  0  0  0  0  0  0  0
    2.7340   -6.5462   -6.6095 C   0  0  0  0  0  0  0  0  0  0  0  0
    2.2434   -7.4577   -5.4857 C   0  0  0  0  0  0  0  0  0  0  0  0
    1.0219   -8.3247   -5.7864 C   0  0  0  0  0  0  0  0  0  0  0  0
  2  1  2  0
  3  2  1  0
  4  1  1  0
  5  4  2  0
  6  5  1  0
  6  3  2  0
  7  6  1  0
  8  7  2  0
  9  8  1  0
 10  9  2  0
 10  3  1  0
 11  5  1  0
 12 10  1  0
 13 11  1  0
 14 13  2  0
 15 13  1  0
 16 15  1  0
 17 16  2  0
 18 16  1  0
 19 17  1  0
 20 18  2  0
 21 19  2  0
 21 20  1  0
 22 21  1  0
 23 22  1  0
 24 23  1  0
 24 25  1  1
 26 24  1  0
 27 26  1  0
 28 27  1  0
 29 28  1  0
 30 29  1  0
 31 30  1  0
M  END
>  <SMILES>  (49) 
CCCCCCC(O)COc1ccc(OC(=O)Nc2cccc3c(F)ccnc23)cc1

>  <scaffold>  (49) 
benzene

$$$$

     RDKit          3D

 15 16  0  0  0  0  0  0  0  0999 V2000
   -0.0000    0.0000    0.0000 C   0  0  0  0  0  0  0  0  0  0  0  0
    0.0000   -0.0000    1.3704 C   0  0  0  0  0  0  0  0  0  0  0  0
    1.2181   -0.0000    2.0648 C   0  0  0  0  0  0  0  0  0  0  0  0
    1.2059   -0.0592   -0.6971 C   0  0  0  0  0  0  0  0  0  0  0  0
    2.4364   -0.1197   -0.0617 C   0  0  0  0  0  0  0  0  0  0  0  0
    2.4386   -0.0591    1.3634 C   0  0  0  0  0  0  0  0  0  0  0  0
    3.6142   -0.0659    2.0210 N   0  0  0  0  0  0  0  0  0  0  0  0
    3.5687   -0.0564    3.2996 C   0  0  0  0  0  0  0  0  0  0  0  0
    2.4390   -0.0400    4.0472 N   0  0  0  0  0  0  0  0  0  0  0  0
    1.2911    0.0245    3.4694 C   0  0  0  0  0  0  0  0  0  0  0  0
    3.4921   -0.2251   -0.9042 O   0  0  0  0  0  0  0  0  0  0  0  0
    4.8449   -0.1419   -0.4865 C   0  0  0  0  0  0  0  0  0  0  0  0
    0.1832    0.0895    4.1493 O   0  0  0  0  0  0  0  0  0  0  0  0
    5.2317    1.3047   -0.1829 C   0  0  0  0  0  0  0  0  0  0  0  0
    0.2629    0.0273    5.5721 C   0  0  0  0  0  0  0  0  0  0  0  0
  2  1  2  0
  3  2  1  0
  4  1  1  0
  5  4  2  0
  6  5  1  0
  6  3  2  0
  7  6  1  0
  8  7  2  0
  9  8  1  0
 10  9  2  0
 10  3  1  0
 11  5  1  0
 12 11  1  0
 13 10  1  0
 14 12  1  0
 15 13  1  0
M  END
>  <SMILES>  (50) 
CCOc1cccc2c(OC)ncnc12

>  <scaffold>  (50) 
benzene

$$$$
