
     RDKit          3D

 16 18  0  0  0  0  0  0  0  0999 V2000
    0.0000    0.0000    0.0000 C   0  0  0  0  0  0  0  0  0  0  0  0
    0.0000    0.0000    1.4021 C   0  0  0  0  0  0  0  0  0  0  0  0
    1.2392    0.0000    2.1085 C   0  0  0  0  0  0  0  0  0  0  0  0
    1.1853   -0.0582   -0.6852 C   0  0  0  0  0  0  0  0  0  0  0  0
    2.4158   -0.1187   -0.0499 C   0  0  0  0  0  0  0  0  0  0  0  0
    2.4180   -0.0598    1.3350 C   0  0  0  0  0  0  0  0  0  0  0  0
   -1.1922    0.0000    2.1703 C   0  0  0  0  0  0  0  0  0  0  0  0
   -1.2413   -0.0492    3.5311 C   0  0  0  0  0  0  0  0  0  0  0  0
    0.0201   -0.0429    4.1795 C   0  0  0  0  0  0  0  0  0  0  0  0
    1.2699    0.0697    3.5186 C   0  0  0  0  0  0  0  0  0  0  0  0
   -0.0754   -0.1404    5.5118 N   0  0  0  0  0  0  0  0  0  0  0  0
    2.4899    0.1215    4.2076 C   0  0  0  0  0  0  0  0  0  0  0  0
    1.0639   -0.0914    6.1546 C   0  0  0  0  0  0  0  0  0  0  0  0
    2.3755    0.0549    5.5637 C   0  0  0  0  0  0  0  0  0  0  0  0
    3.5322    0.0527    6.2690 F   0  0  0  0  0  0  0  0  0  0  0  0
    3.6590   -0.1729    1.9239 N   0  0  0  0  0  0  0  0  0  0  0  0
  1  2  2  0
  1  4  1  0
  2  3  1  0
  2  7  1  0
  3  6  2  0
  3 10  1  0
  4  5  2  0
  5  6  1  0
  6 16  1  0
  7  8  2  0
  8  9  1  0
  9 10  2  0
  9 11  1  0
 10 12  1  0
 11 13  2  0
 12 14  2  0
 13 14  1  0
 14 15  1  0
M  END

$$$$

     RDKit          3D

 31 32  0  0  0  0  0  0  0  0999 V2000
    0.0000    0.0000    0.0000 C   0  0  0  0  0  0  0  0  0  0  0  0
    0.0000    0.0000    1.3862 C   0  0  0  0  0  0  0  0  0  0  0  0
    1.1743    0.0000    2.1077 C   0  0  0  0  0  0  0  0  0  0  0  0
    1.2462    0.0000   -0.6426 C   0  0  0  0  0  0  0  0  0  0  0  0
    2.4114    0.0000    0.1082 C   0  0  0  0  0  0  0  0  0  0  0  0
    2.3449    0.0589    1.4915 C   0  0  0  0  0  0  0  0  0  0  0  0
    1.2965    0.0503   -2.0349 N   0  0  0  0  0  0  0  0  0  0  0  0
    2.3733    0.3069   -2.8560 C   0  0  0  0  0  0  0  0  0  0  0  0
    2.5630   -0.5934   -4.2207 S   0  0  0  0  0  0  0  0  0  0  0  0
    3.1671    1.3103   -2.5149 N   0  0  0  0  0  0  0  0  0  0  0  0
    3.4224    0.1186    2.3361 O   0  0  0  0  0  0  0  0  0  0  0  0
   -1.3065    0.0642   -0.7552 C   0  0  0  0  0  0  0  0  0  0  0  0
   -1.5968    1.5234   -1.1394 C   0  0  0  0  0  0  0  0  0  0  0  0
   -2.4609   -0.4818    0.0676 C   0  0  0  0  0  0  0  0  0  0  0  0
   -2.3336   -1.7978    0.5581 C   0  0  0  0  0  0  0  0  0  0  0  0
   -3.6266    0.2324    0.2967 C   0  0  0  0  0  0  0  0  0  0  0  0
   -3.3234   -2.4145    1.2627 C   0  0  0  0  0  0  0  0  0  0  0  0
   -4.6732   -0.3271    1.0129 C   0  0  0  0  0  0  0  0  0  0  0  0
   -4.5443   -1.7000    1.4461 C   0  0  0  0  0  0  0  0  0  0  0  0
   -3.0964   -3.6724    1.8389 N   0  0  0  0  0  0  0  0  0  0  0  0
   -1.8144    2.4295    0.0825 C   0  0  0  0  0  0  0  0  0  0  0  0
   -2.6027    3.6660   -0.3467 C   0  0  0  0  0  0  0  0  0  0  0  0
   -5.4704   -2.3251    2.1846 N   0  0  0  0  0  0  0  0  0  0  0  0
   -6.7809   -1.7985    2.4363 C   0  0  0  0  0  0  0  0  0  0  0  0
    4.7061   -0.0626    1.8234 C   0  0  0  0  0  0  0  0  0  0  0  0
    4.9901   -1.4891    1.3554 C   0  0  0  0  0  0  0  0  0  0  0  0
    4.4591   -2.4069    2.1610 F   0  0  0  0  0  0  0  0  0  0  0  0
    4.4679   -1.7594    0.1435 F   0  0  0  0  0  0  0  0  0  0  0  0
    6.3097   -1.6980    1.2622 F   0  0  0  0  0  0  0  0  0  0  0  0
   -2.0813   -3.5992    3.1928 S   0  0  0  0  0  0  0  0  0  0  0  0
   -0.9107   -2.8308    2.7812 O   0  0  0  0  0  0  0  0  0  0  0  0
  1  2  2  0
  1  4  1  0
  1 12  1  0
  2  3  1  0
  3  6  2  0
  4  5  2  0
  4  7  1  0
  5  6  1  0
  6 11  1  0
  7  8  1  0
  8  9  1  0
  8 10  2  0
 11 25  1  0
 12 13  1  0
 12 14  1  0
 13 21  1  0
 14 15  2  0
 14 16  1  0
 15 17  1  0
 16 18  2  0
 17 19  2  0
 17 20  1  0
 18 19  1  0
 19 23  1  0
 20 30  1  0
 21 22  1  0
 23 24  1  0
 25 26  1  0
 26 27  1  0
 26 28  1  0
 26 29  1  0
 30 31  1  0
M  END

$$$$

     RDKit          3D

 18 20  0  0  0  0  0  0  0  0999 V2000
    0.0000    0.0000    0.0000 C   0  0  0  0  0  0  0  0  0  0  0  0
    0.0000    0.0000    1.5279 C   0  0  0  0  0  0  0  0  0  0  0  0
    1.4333    0.0000    2.0570 C   0  0  0  0  0  0  0  0  0  0  0  0
    0.7448   -1.2426   -0.5122 C   0  0  0  0  0  0  0  0  0  0  0  0
    2.1595   -1.3121    0.0607 C   0  0  0  0  0  0  0  0  0  0  0  0
    2.1364   -1.1656    1.5814 C   0  0  0  0  0  0  0  0  0  0  0  0
    0.8324   -1.1245   -1.9475 N   0  0  0  0  0  0  0  0  0  0  0  0
    0.1014   -1.8141   -2.8792 C   0  0  0  0  0  0  0  0  0  0  0  0
    1.7049   -0.2971   -2.5198 N   0  0  0  0  0  0  0  0  0  0  0  0
   -0.8494   -2.8334   -2.9043 C   0  0  0  0  0  0  0  0  0  0  0  0
    0.5996   -1.2233   -4.0975 C   0  0  0  0  0  0  0  0  0  0  0  0
    1.5615   -0.3297   -3.7833 N   0  0  0  0  0  0  0  0  0  0  0  0
   -1.2852   -3.2553   -4.1157 C   0  0  0  0  0  0  0  0  0  0  0  0
    0.1621   -1.6696   -5.3437 C   0  0  0  0  0  0  0  0  0  0  0  0
   -0.7660   -2.6536   -5.3002 C   0  0  0  0  0  0  0  0  0  0  0  0
   -1.3710   -3.1696   -6.5641 C   0  0  0  0  0  0  0  0  0  0  0  0
   -2.2262   -4.0228   -6.5843 O   0  0  0  0  0  0  0  0  0  0  0  0
   -0.7504   -2.5408   -7.7893 C   0  0  0  0  0  0  0  0  0  0  0  0
  1  2  1  0
  1  4  1  0
  2  3  1  0
  3  6  1  0
  4  5  1  0
  4  7  1  0
  5  6  1  0
  7  8  1  0
  7  9  1  0
  8 10  1  0
  8 11  2  0
  9 12  2  0
 10 13  2  0
 11 12  1  0
 11 14  1  0
 13 15  1  0
 14 15  2  0
 15 16  1  0
 16 17  2  0
 16 18  1  0
M  END

$$$$

     RDKit          3D

 32 36  0  0  0  0  0  0  0  0999 V2000
    0.0000    0.0000    0.0000 C   0  0  0  0  0  0  0  0  0  0  0  0
    0.0000    0.0000    1.3862 C   0  0  0  0  0  0  0  0  0  0  0  0
    1.2192    0.0000    2.0290 C   0  0  0  0  0  0  0  0  0  0  0  0
    1.1719    0.0000   -0.7551 C   0  0  0  0  0  0  0  0  0  0  0  0
    2.3778   -0.0592   -0.0581 C   0  0  0  0  0  0  0  0  0  0  0  0
    2.4450   -0.0577    1.3185 C   0  0  0  0  0  0  0  0  0  0  0  0
    3.5643   -0.0522    2.3069 C   0  0  0  0  0  0  0  0  0  0  0  0
    1.4921    0.0543    3.3708 N   0  0  0  0  0  0  0  0  0  0  0  0
    2.9512    0.0062    3.7052 C   0  0  0  0  0  0  0  0  0  0  0  0
    3.3992   -0.0157    4.8122 O   0  0  0  0  0  0  0  0  0  0  0  0
   -1.6784    0.0000   -0.8655 Br  0  0  0  0  0  0  0  0  0  0  0  0
    4.4080    1.2277    2.2001 C   0  0  0  0  0  0  0  0  0  0  0  0
    3.6079    2.4250    2.6268 C   0  0  0  0  0  0  0  0  0  0  0  0
    2.3082    2.3740    2.6723 N   0  0  0  0  0  0  0  0  0  0  0  0
    4.1666    3.6182    3.0575 N   0  0  0  0  0  0  0  0  0  0  0  0
    1.8986    3.5781    3.1390 C   0  0  0  0  0  0  0  0  0  0  0  0
    3.0654    4.3921    3.3889 C   0  0  0  0  0  0  0  0  0  0  0  0
    0.6689    4.0083    3.4151 N   0  0  0  0  0  0  0  0  0  0  0  0
    2.7787    5.6601    3.9354 C   0  0  0  0  0  0  0  0  0  0  0  0
    0.6001    5.2413    3.9137 C   0  0  0  0  0  0  0  0  0  0  0  0
    1.4910    6.0002    4.1369 N   0  0  0  0  0  0  0  0  0  0  0  0
    5.5696    4.0201    3.0622 C   0  0  0  0  0  0  0  0  0  0  0  0
    5.6318    0.9637    3.0758 C   0  0  0  0  0  0  0  0  0  0  0  0
    0.3903    0.2545    4.2937 C   0  0  0  0  0  0  0  0  0  0  0  0
    0.1250    1.7375    4.5477 C   0  0  0  0  0  0  0  0  0  0  0  0
   -0.9008   -0.4160    3.7987 C   0  0  0  0  0  0  0  0  0  0  0  0
    5.7213    5.3265    2.3019 C   0  0  0  0  0  0  0  0  0  0  0  0
    4.8716    5.5788    1.2362 C   0  0  0  0  0  0  0  0  0  0  0  0
    6.7107    6.2473    2.6097 C   0  0  0  0  0  0  0  0  0  0  0  0
    5.0836    6.7811    0.5304 C   0  0  0  0  0  0  0  0  0  0  0  0
    6.9177    7.4209    1.9174 C   0  0  0  0  0  0  0  0  0  0  0  0
    6.1333    7.6763    0.8224 C   0  0  0  0  0  0  0  0  0  0  0  0
  1  2  2  0
  1  4  1  0
  1 11  1  0
  2  3  1  0
  3  6  2  0
  3  8  1  0
  4  5  2  0
  5  6  1  0
  6  7  1  0
  7  9  1  0
  7 12  1  0
  8  9  1  0
  8 24  1  0
  9 10  2  0
 12 13  1  0
 12 23  1  0
 13 14  2  0
 13 15  1  0
 14 16  1  0
 15 17  1  0
 15 22  1  0
 16 17  2  0
 16 18  1  0
 17 19  1  0
 18 20  1  0
 19 21  1  0
 20 21  2  0
 22 27  1  0
 24 25  1  0
 24 26  1  0
 27 28  2  0
 27 29  1  0
 28 30  1  0
 29 31  2  0
 30 32  2  0
 31 32  1  0
M  END

$$$$

     RDKit          3D

 23 24  0  0  0  0  0  0  0  0999 V2000
    0.0000    0.0000    0.0000 C   0  0  0  0  0  0  0  0  0  0  0  0
    0.0000    0.0000    1.3941 C   0  0  0  0  0  0  0  0  0  0  0  0
    1.1743    0.0000    2.1157 C   0  0  0  0  0  0  0  0  0  0  0  0
    1.2391    0.0000   -0.6390 C   0  0  0  0  0  0  0  0  0  0  0  0
    2.3976    0.0000    0.1076 C   0  0  0  0  0  0  0  0  0  0  0  0
    2.3311   -0.0589    1.4909 C   0  0  0  0  0  0  0  0  0  0  0  0
   -1.3046    0.0000   -0.6728 C   0  0  0  0  0  0  0  0  0  0  0  0
   -1.4606    0.6500   -1.8511 C   0  0  0  0  0  0  0  0  0  0  0  0
   -2.6682    0.8163   -2.6384 C   0  0  0  0  0  0  0  0  0  0  0  0
   -2.6423    1.4752   -3.6591 O   0  0  0  0  0  0  0  0  0  0  0  0
    3.7505    0.0005    2.4834 Cl  0  0  0  0  0  0  0  0  0  0  0  0
   -3.9491    0.2218   -2.1530 C   0  0  0  0  0  0  0  0  0  0  0  0
   -4.1518   -0.6213   -1.0512 C   0  0  0  0  0  0  0  0  0  0  0  0
   -5.1021    0.5201   -2.8776 C   0  0  0  0  0  0  0  0  0  0  0  0
   -5.4338   -1.1238   -0.7868 C   0  0  0  0  0  0  0  0  0  0  0  0
   -6.4007    0.1047   -2.5502 C   0  0  0  0  0  0  0  0  0  0  0  0
   -6.5311   -0.8289   -1.5668 C   0  0  0  0  0  0  0  0  0  0  0  0
   -7.5015    0.5215   -3.3414 C   0  0  0  0  0  0  0  0  0  0  0  0
   -8.4680    0.8451   -3.9772 C   0  0  0  0  0  0  0  0  0  0  0  0
   -2.3402   -0.6207    0.0243 N   0  0  0  0  0  0  0  0  0  0  0  0
   -9.4798    1.2862   -4.8807 C   0  0  0  0  0  0  0  0  0  0  0  0
   -9.4051    1.7588   -5.9901 O   0  0  0  0  0  0  0  0  0  0  0  0
  -10.7300    1.1532   -4.4188 O   0  0  0  0  0  0  0  0  0  0  0  0
  1  2  2  0
  1  4  1  0
  1  7  1  0
  2  3  1  0
  3  6  2  0
  4  5  2  0
  5  6  1  0
  6 11  1  0
  7  8  2  3
  7 20  1  0
  8  9  1  0
  9 10  2  0
  9 12  1  0
 12 13  2  0
 12 14  1  0
 13 15  1  0
 14 16  2  0
 15 17  2  0
 16 17  1  0
 16 18  1  0
 18 19  3  0
 19 21  1  0
 21 22  2  0
 21 23  1  0
M  END

$$$$

     RDKit          3D

 22 24  0  0  0  0  0  0  0  0999 V2000
    0.0000    0.0000    0.0000 C   0  0  0  0  0  0  0  0  0  0  0  0
    0.0000    0.0000    1.3862 C   0  0  0  0  0  0  0  0  0  0  0  0
    1.1974    0.0000    2.0687 C   0  0  0  0  0  0  0  0  0  0  0  0
    1.1990   -0.0589   -0.6931 C   0  0  0  0  0  0  0  0  0  0  0  0
    2.3868   -0.1759   -0.0040 C   0  0  0  0  0  0  0  0  0  0  0  0
    2.3868   -0.1759    1.3902 C   0  0  0  0  0  0  0  0  0  0  0  0
   -1.7173    0.0000   -0.8856 Br  0  0  0  0  0  0  0  0  0  0  0  0
    3.6258   -0.3514    2.1734 C   0  0  0  0  0  0  0  0  0  0  0  0
    3.8546    0.2660    3.2030 O   0  0  0  0  0  0  0  0  0  0  0  0
    4.5514   -1.3594    1.6199 C   0  0  0  0  0  0  0  0  0  0  0  0
    4.0739   -2.5998    1.2263 C   0  0  0  0  0  0  0  0  0  0  0  0
    5.9645   -1.1782    1.6901 C   0  0  0  0  0  0  0  0  0  0  0  0
    4.8303   -3.6654    0.8404 C   0  0  0  0  0  0  0  0  0  0  0  0
    6.7987   -2.2233    1.2681 C   0  0  0  0  0  0  0  0  0  0  0  0
    6.2286   -3.4825    0.8441 C   0  0  0  0  0  0  0  0  0  0  0  0
    6.9369   -4.5761    0.5021 N   0  0  0  0  0  0  0  0  0  0  0  0
    4.3203   -4.8761    0.5096 F   0  0  0  0  0  0  0  0  0  0  0  0
    6.5905   -0.0466    2.0079 N   0  0  0  0  0  0  0  0  0  0  0  0
    5.9308    1.2391    2.1406 C   0  0  0  0  0  0  0  0  0  0  0  0
    8.0243    0.0730    2.1156 C   0  0  0  0  0  0  0  0  0  0  0  0
    7.1288    2.2011    2.1153 C   0  0  0  0  0  0  0  0  0  0  0  0
    8.3003    1.5020    2.5509 C   0  0  0  0  0  0  0  0  0  0  0  0
  1  2  2  0
  1  4  1  0
  1  7  1  0
  2  3  1  0
  3  6  2  0
  4  5  2  0
  5  6  1  0
  6  8  1  0
  8  9  2  0
  8 10  1  0
 10 11  2  0
 10 12  1  0
 11 13  1  0
 12 14  2  0
 12 18  1  0
 13 15  2  0
 13 17  1  0
 14 15  1  0
 15 16  1  0
 18 19  1  0
 18 20  1  0
 19 21  1  0
 20 22  1  0
 21 22  1  0
M  END

$$$$

     RDKit          3D

 14 14  0  0  0  0  0  0  0  0999 V2000
    0.0000    0.0000    0.0000 C   0  0  0  0  0  0  0  0  0  0  0  0
    0.0000    0.0000    1.3862 C   0  0  0  0  0  0  0  0  0  0  0  0
    1.1928    0.0000    2.0924 C   0  0  0  0  0  0  0  0  0  0  0  0
    1.1719    0.0000   -0.7551 C   0  0  0  0  0  0  0  0  0  0  0  0
    2.3917   -0.0599   -0.0501 C   0  0  0  0  0  0  0  0  0  0  0  0
    2.3908   -0.0009    1.3428 C   0  0  0  0  0  0  0  0  0  0  0  0
    3.6238   -0.1229   -0.6097 O   0  0  0  0  0  0  0  0  0  0  0  0
    1.2202    0.0483   -2.0927 O   0  0  0  0  0  0  0  0  0  0  0  0
    3.8325   -0.7798   -1.8586 C   0  0  0  0  0  0  0  0  0  0  0  0
    0.0056    0.1031   -2.7912 C   0  0  0  0  0  0  0  0  0  0  0  0
    4.0802   -0.0183    2.2341 Br  0  0  0  0  0  0  0  0  0  0  0  0
    3.6213   -2.2923   -1.6881 C   0  0  0  0  0  0  0  0  0  0  0  0
    5.2788   -0.4796   -2.2130 C   0  0  0  0  0  0  0  0  0  0  0  0
    3.4564   -2.9801   -3.0325 C   0  0  0  0  0  0  0  0  0  0  0  0
  1  2  2  0
  1  4  1  0
  2  3  1  0
  3  6  2  0
  4  5  2  0
  4  8  1  0
  5  6  1  0
  5  7  1  0
  6 11  1  0
  7  9  1  0
  8 10  1  0
  9 12  1  0
  9 13  1  0
 12 14  1  0
M  END

$$$$

     RDKit          3D

 31 32  0  0  0  0  0  0  0  0999 V2000
    0.0000    0.0000    0.0000 C   0  0  0  0  0  0  0  0  0  0  0  0
    0.0000    0.0000    1.3782 C   0  0  0  0  0  0  0  0  0  0  0  0
    1.1974    0.0000    2.0608 C   0  0  0  0  0  0  0  0  0  0  0  0
    1.1990    0.0589   -0.6931 C   0  0  0  0  0  0  0  0  0  0  0  0
    2.4366    0.1197   -0.0541 C   0  0  0  0  0  0  0  0  0  0  0  0
    2.4388    0.0602    1.3467 C   0  0  0  0  0  0  0  0  0  0  0  0
    3.7042    0.2362   -0.8510 C   0  0  0  0  0  0  0  0  0  0  0  0
    3.6414    0.1668    2.0278 N   0  0  0  0  0  0  0  0  0  0  0  0
    3.8716   -0.4184    3.3263 C   0  0  0  0  0  0  0  0  0  0  0  0
    5.1912   -0.0751    4.0157 C   0  0  0  0  0  0  0  0  0  0  0  0
    3.8839   -1.9544    3.2846 C   0  0  0  0  0  0  0  0  0  0  0  0
    4.4620   -2.6737    2.5261 O   0  0  0  0  0  0  0  0  0  0  0  0
    4.8531    0.3077    5.4280 C   0  0  0  0  0  0  0  0  0  0  0  0
    5.5556    0.4280    6.3780 O   0  0  0  0  0  0  0  0  0  0  0  0
    3.0165   -2.3860    4.2648 N   0  0  0  0  0  0  0  0  0  0  0  0
    2.8884   -3.7572    4.6363 C   0  0  0  0  0  0  0  0  0  0  0  0
    1.6173   -4.2558    4.8755 C   0  0  0  0  0  0  0  0  0  0  0  0
    4.0029   -4.5692    4.7778 C   0  0  0  0  0  0  0  0  0  0  0  0
    1.4475   -5.5685    5.2870 C   0  0  0  0  0  0  0  0  0  0  0  0
    3.8330   -5.8745    5.1862 C   0  0  0  0  0  0  0  0  0  0  0  0
    2.5779   -6.3789    5.5190 C   0  0  0  0  0  0  0  0  0  0  0  0
    2.6132   -7.6627    5.9743 O   0  0  0  0  0  0  0  0  0  0  0  0
    0.2158   -6.1157    5.4869 O   0  0  0  0  0  0  0  0  0  0  0  0
    1.4830   -8.2472    6.5822 C   0  0  0  0  0  0  0  0  0  0  0  0
   -0.9454   -5.3083    5.5927 C   0  0  0  0  0  0  0  0  0  0  0  0
    1.2149   -7.6847    7.9965 C   0  0  0  0  0  0  0  0  0  0  0  0
    1.6018   -8.7563    9.0145 C   0  0  0  0  0  0  0  0  0  0  0  0
   -0.1567   -7.4219    8.1216 O   0  0  0  0  0  0  0  0  0  0  0  0
    1.8043   -9.9766    8.1477 C   0  0  0  0  0  0  0  0  0  0  0  0
    2.0790  -11.0645    8.5958 O   0  0  0  0  0  0  0  0  0  0  0  0
   -0.9745   -4.4662    6.8567 C   0  0  0  0  0  0  0  0  0  0  0  0
  1  2  2  0
  1  4  1  0
  2  3  1  0
  3  6  2  0
  4  5  2  0
  5  6  1  0
  5  7  1  0
  6  8  1  0
  8  9  1  0
  9 10  1  0
  9 11  1  0
 10 13  1  0
 11 12  2  0
 11 15  1  0
 13 14  2  0
 15 16  1  0
 16 17  2  0
 16 18  1  0
 17 19  1  0
 18 20  2  0
 19 21  2  0
 19 23  1  0
 20 21  1  0
 21 22  1  0
 22 24  1  0
 23 25  1  0
 24 26  1  0
 25 31  1  0
 26 27  1  0
 26 28  1  0
 27 29  1  0
 29 30  2  0
M  END

$$$$

     RDKit          3D

 30 32  0  0  0  0  0  0  0  0999 V2000
    0.0000    0.0000    0.0000 C   0  0  0  0  0  0  0  0  0  0  0  0
    0.0000    0.0000    1.3941 C   0  0  0  0  0  0  0  0  0  0  0  0
    1.1860    0.0000    2.0963 C   0  0  0  0  0  0  0  0  0  0  0  0
    1.2128   -0.0596   -0.7011 C   0  0  0  0  0  0  0  0  0  0  0  0
    2.4201   -0.0596   -0.0040 C   0  0  0  0  0  0  0  0  0  0  0  0
    2.4201   -0.0596    1.3822 C   0  0  0  0  0  0  0  0  0  0  0  0
    4.0129   -0.1280    2.1111 S   0  0  0  0  0  0  0  0  0  0  0  0
   -1.1854    0.0000   -0.7638 N   0  0  0  0  0  0  0  0  0  0  0  0
    3.5655   -0.0374    3.8562 C   0  0  0  0  0  0  0  0  0  0  0  0
   -1.4943   -1.2331   -1.4978 C   0  0  0  0  0  0  0  0  0  0  0  0
   -2.1857    0.9066   -0.6509 C   0  0  0  0  0  0  0  0  0  0  0  0
   -3.1815    0.7865   -1.3245 O   0  0  0  0  0  0  0  0  0  0  0  0
    1.2609   -0.2824   -2.1768 C   0  0  0  0  0  0  0  0  0  0  0  0
    0.4956   -1.0495   -2.7267 O   0  0  0  0  0  0  0  0  0  0  0  0
   -1.7635   -2.3337   -0.4989 C   0  0  0  0  0  0  0  0  0  0  0  0
   -3.0523   -2.5974   -0.0877 C   0  0  0  0  0  0  0  0  0  0  0  0
   -0.6870   -2.9701    0.1173 C   0  0  0  0  0  0  0  0  0  0  0  0
   -3.3406   -3.5163    0.9314 C   0  0  0  0  0  0  0  0  0  0  0  0
   -0.8799   -3.8268    1.1693 C   0  0  0  0  0  0  0  0  0  0  0  0
   -2.2589   -4.1322    1.5768 C   0  0  0  0  0  0  0  0  0  0  0  0
   -4.6581   -3.6800    1.1591 O   0  0  0  0  0  0  0  0  0  0  0  0
   -2.3419   -5.0464    2.6685 N   0  0  0  0  0  0  0  0  0  0  0  0
   -1.9879    2.1481    0.2174 C   0  0  0  0  0  0  0  0  0  0  0  0
   -0.4658    2.9884   -0.3006 S   0  0  0  0  0  0  0  0  0  0  0  0
   -5.1856   -4.7092    1.9375 C   0  0  0  0  0  0  0  0  0  0  0  0
   -4.8222   -4.8492    3.2596 C   0  0  0  0  0  0  0  0  0  0  0  0
   -6.1188   -5.5263    1.3550 C   0  0  0  0  0  0  0  0  0  0  0  0
   -5.4105   -5.8576    4.0070 C   0  0  0  0  0  0  0  0  0  0  0  0
   -6.7778   -6.4969    2.1375 C   0  0  0  0  0  0  0  0  0  0  0  0
   -6.3343   -6.6777    3.3957 C   0  0  0  0  0  0  0  0  0  0  0  0
  1  2  2  0
  1  4  1  0
  1  8  1  0
  2  3  1  0
  3  6  2  0
  4  5  2  0
  4 13  1  0
  5  6  1  0
  6  7  1  0
  7  9  1  0
  8 10  1  0
  8 11  1  0
 10 15  1  0
 11 12  2  0
 11 23  1  0
 13 14  2  0
 15 16  2  0
 15 17  1  0
 16 18  1  0
 17 19  2  0
 18 20  2  0
 18 21  1  0
 19 20  1  0
 20 22  1  0
 21 25  1  0
 23 24  1  0
 25 26  2  0
 25 27  1  0
 26 28  1  0
 27 29  2  0
 28 30  2  0
 29 30  1  0
M  END

$$$$

     RDKit          3D

 25 27  0  0  0  0  0  0  0  0999 V2000
    0.0000    0.0000    0.0000 C   0  0  0  0  0  0  0  0  0  0  0  0
    0.0000    0.0000    1.3782 C   0  0  0  0  0  0  0  0  0  0  0  0
    1.2065    0.0000    2.0926 C   0  0  0  0  0  0  0  0  0  0  0  0
    1.2533    0.0000   -0.6463 C   0  0  0  0  0  0  0  0  0  0  0  0
    2.4713    0.0000   -0.0182 C   0  0  0  0  0  0  0  0  0  0  0  0
    2.4713    0.0000    1.3759 C   0  0  0  0  0  0  0  0  0  0  0  0
    3.6269    0.1505    2.1411 N   0  0  0  0  0  0  0  0  0  0  0  0
    3.4935    0.1864    3.4888 C   0  0  0  0  0  0  0  0  0  0  0  0
    4.9193    0.3188    1.7437 C   0  0  0  0  0  0  0  0  0  0  0  0
    2.3163    0.0267    4.2336 C   0  0  0  0  0  0  0  0  0  0  0  0
    4.7357    0.3902    3.9896 N   0  0  0  0  0  0  0  0  0  0  0  0
    5.6041    0.4624    2.9403 C   0  0  0  0  0  0  0  0  0  0  0  0
    1.1820   -0.1893    3.4957 C   0  0  0  0  0  0  0  0  0  0  0  0
   -0.0210   -0.4128    4.1129 O   0  0  0  0  0  0  0  0  0  0  0  0
    5.4502    0.3879    0.3679 C   0  0  0  0  0  0  0  0  0  0  0  0
   -0.2222   -0.3818    5.4920 C   0  0  0  0  0  0  0  0  0  0  0  0
    2.3004    0.1361    5.5916 F   0  0  0  0  0  0  0  0  0  0  0  0
    7.0615    0.7320    3.0282 C   0  0  0  0  0  0  0  0  0  0  0  0
   -1.1719    0.0576    2.0556 F   0  0  0  0  0  0  0  0  0  0  0  0
   -1.0576    0.0000   -0.8467 O   0  0  0  0  0  0  0  0  0  0  0  0
   -2.3579    0.4653   -0.4901 C   0  0  0  0  0  0  0  0  0  0  0  0
   -0.0459    1.0158    6.0607 C   0  0  0  0  0  0  0  0  0  0  0  0
    0.0796    2.0302    5.4560 O   0  0  0  0  0  0  0  0  0  0  0  0
    0.0151    0.9434    7.4122 O   0  0  0  0  0  0  0  0  0  0  0  0
   -2.3884    1.9736   -0.2484 C   0  0  0  0  0  0  0  0  0  0  0  0
  1  2  2  0
  1  4  1  0
  1 20  1  0
  2  3  1  0
  2 19  1  0
  3  6  2  0
  3 13  1  0
  4  5  2  0
  5  6  1  0
  6  7  1  0
  7  8  1  0
  7  9  1  0
  8 10  1  0
  8 11  2  0
  9 12  2  0
  9 15  1  0
 10 13  2  0
 10 17  1  0
 11 12  1  0
 12 18  1  0
 13 14  1  0
 14 16  1  0
 16 22  1  0
 20 21  1  0
 21 25  1  0
 22 23  2  0
 22 24  1  0
M  END

$$$$

     RDKit          3D

 14 14  0  0  0  0  0  0  0  0999 V2000
    0.0000    0.0000    0.0000 C   0  0  0  0  0  0  0  0  0  0  0  0
    0.0000    0.0000    1.3782 C   0  0  0  0  0  0  0  0  0  0  0  0
    1.2042    0.0000    2.0647 C   0  0  0  0  0  0  0  0  0  0  0  0
    1.1652    0.0000   -0.7508 C   0  0  0  0  0  0  0  0  0  0  0  0
    2.4114    0.0000   -0.1082 C   0  0  0  0  0  0  0  0  0  0  0  0
    2.4114    0.0000    1.3020 C   0  0  0  0  0  0  0  0  0  0  0  0
    3.5818    0.0492   -0.8040 N   0  0  0  0  0  0  0  0  0  0  0  0
    4.8344   -0.0890   -0.1013 C   0  0  0  0  0  0  0  0  0  0  0  0
    3.7011    0.0515    1.9092 O   0  0  0  0  0  0  0  0  0  0  0  0
    4.1780   -1.1307    2.2383 C   0  0  0  0  0  0  0  0  0  0  0  0
    3.5653    0.3509   -2.2064 C   0  0  0  0  0  0  0  0  0  0  0  0
    5.3976   -0.8903    2.7370 F   0  0  0  0  0  0  0  0  0  0  0  0
    4.3196   -1.9941    1.2242 F   0  0  0  0  0  0  0  0  0  0  0  0
    3.4956   -1.7229    3.2166 F   0  0  0  0  0  0  0  0  0  0  0  0
  1  2  2  0
  1  4  1  0
  2  3  1  0
  3  6  2  0
  4  5  2  0
  5  6  1  0
  5  7  1  0
  6  9  1  0
  7  8  1  0
  7 11  1  0
  9 10  1  0
 10 12  1  0
 10 13  1  0
 10 14  1  0
M  END

$$$$

     RDKit          3D

 32 34  0  0  0  0  0  0  0  0999 V2000
    0.0000    0.0000    0.0000 C   0  0  0  0  0  0  0  0  0  0  0  0
    0.0000    0.0000    1.3862 C   0  0  0  0  0  0  0  0  0  0  0  0
    1.1810    0.0000    2.1119 C   0  0  0  0  0  0  0  0  0  0  0  0
    1.1990   -0.0589   -0.6931 C   0  0  0  0  0  0  0  0  0  0  0  0
    2.3628   -0.1161    0.0578 C   0  0  0  0  0  0  0  0  0  0  0  0
    2.4289   -0.1193    1.4503 C   0  0  0  0  0  0  0  0  0  0  0  0
    3.6726   -0.2346    2.0140 O   0  0  0  0  0  0  0  0  0  0  0  0
    3.9266    0.0620    3.3607 C   0  0  0  0  0  0  0  0  0  0  0  0
    1.2299   -0.0489    3.4649 O   0  0  0  0  0  0  0  0  0  0  0  0
    1.2548   -0.0083   -2.1674 C   0  0  0  0  0  0  0  0  0  0  0  0
    1.8160   -0.9996   -2.9711 C   0  0  0  0  0  0  0  0  0  0  0  0
    0.6409    1.1256   -2.7383 C   0  0  0  0  0  0  0  0  0  0  0  0
    1.8561   -0.8096   -4.3597 C   0  0  0  0  0  0  0  0  0  0  0  0
    0.7134    1.2439   -4.1498 C   0  0  0  0  0  0  0  0  0  0  0  0
    1.3234    0.2610   -4.9104 N   0  0  0  0  0  0  0  0  0  0  0  0
    0.0944    2.1129   -1.9061 C   0  0  0  0  0  0  0  0  0  0  0  0
   -0.2775    2.8885   -1.1466 N   0  0  0  0  0  0  0  0  0  0  0  0
    0.0959    2.2919   -4.7462 N   0  0  0  0  0  0  0  0  0  0  0  0
    2.4830   -1.7684   -5.3308 C   0  0  0  0  0  0  0  0  0  0  0  0
    2.3638   -2.2608   -2.3670 C   0  0  0  0  0  0  0  0  0  0  0  0
    3.3829   -2.7681   -4.6060 C   0  0  0  0  0  0  0  0  0  0  0  0
    3.8048   -3.8319   -5.5918 C   0  0  0  0  0  0  0  0  0  0  0  0
    2.8734   -4.6698   -6.2033 C   0  0  0  0  0  0  0  0  0  0  0  0
    5.1295   -4.0564   -5.8611 C   0  0  0  0  0  0  0  0  0  0  0  0
    3.3077   -5.6526   -7.0538 C   0  0  0  0  0  0  0  0  0  0  0  0
    5.5710   -5.0650   -6.7294 C   0  0  0  0  0  0  0  0  0  0  0  0
    4.6605   -5.8699   -7.3515 C   0  0  0  0  0  0  0  0  0  0  0  0
    6.9104   -5.1679   -6.8289 O   0  0  0  0  0  0  0  0  0  0  0  0
    0.1412    2.5512   -6.1398 C   0  0  0  0  0  0  0  0  0  0  0  0
    0.0377    0.0191    4.1844 C   0  0  0  0  0  0  0  0  0  0  0  0
    4.8936   -6.8587   -8.2595 O   0  0  0  0  0  0  0  0  0  0  0  0
    6.3792   -6.8879   -8.4779 C   0  0  0  0  0  0  0  0  0  0  0  0
  1  2  2  0
  1  4  1  0
  2  3  1  0
  3  6  2  0
  3  9  1  0
  4  5  2  0
  4 10  1  0
  5  6  1  0
  6  7  1  0
  7  8  1  0
  9 30  1  0
 10 11  2  0
 10 12  1  0
 11 13  1  0
 11 20  1  0
 12 14  2  0
 12 16  1  0
 13 15  2  0
 13 19  1  0
 14 15  1  0
 14 18  1  0
 16 17  3  0
 18 29  1  0
 19 21  1  0
 21 22  1  0
 22 23  2  0
 22 24  1  0
 23 25  1  0
 24 26  2  0
 25 27  2  0
 26 27  1  0
 26 28  1  0
 27 31  1  0
 31 32  1  0
M  END

$$$$

     RDKit          3D

 31 32  0  0  0  0  0  0  0  0999 V2000
    0.0000    0.0000    0.0000 C   0  0  0  0  0  0  0  0  0  0  0  0
    0.0000    0.0000    1.3782 C   0  0  0  0  0  0  0  0  0  0  0  0
    1.2435    0.0000    2.0603 C   0  0  0  0  0  0  0  0  0  0  0  0
    1.1786    0.0000   -0.7595 C   0  0  0  0  0  0  0  0  0  0  0  0
    2.3776    0.0589   -0.0664 C   0  0  0  0  0  0  0  0  0  0  0  0
    2.3769    0.1145    1.3186 C   0  0  0  0  0  0  0  0  0  0  0  0
    0.9597   -0.0587   -2.2268 C   0  0  0  0  0  0  0  0  0  0  0  0
   -0.1156   -0.3972   -2.6804 O   0  0  0  0  0  0  0  0  0  0  0  0
    1.1145   -0.0535    3.4235 O   0  0  0  0  0  0  0  0  0  0  0  0
   -1.1054    0.0543    2.1731 O   0  0  0  0  0  0  0  0  0  0  0  0
   -2.3873    0.0543    1.5855 C   0  0  0  0  0  0  0  0  0  0  0  0
    2.2456    0.2627    4.2474 C   0  0  0  0  0  0  0  0  0  0  0  0
    1.6356    0.4699    5.6522 C   0  0  0  0  0  0  0  0  0  0  0  0
    2.9883    1.5367    3.7850 C   0  0  0  0  0  0  0  0  0  0  0  0
    4.1892    1.6459    3.9348 O   0  0  0  0  0  0  0  0  0  0  0  0
    2.1536    0.3181   -3.0873 C   0  0  0  0  0  0  0  0  0  0  0  0
    2.6340    0.7646    6.7587 C   0  0  0  0  0  0  0  0  0  0  0  0
    3.2356   -0.8655    4.2968 C   0  0  0  0  0  0  0  0  0  0  0  0
    4.6068   -0.6629    4.2976 C   0  0  0  0  0  0  0  0  0  0  0  0
    2.7398   -2.1581    4.3672 C   0  0  0  0  0  0  0  0  0  0  0  0
    5.4815   -1.7339    4.3942 C   0  0  0  0  0  0  0  0  0  0  0  0
    3.6102   -3.2223    4.4642 C   0  0  0  0  0  0  0  0  0  0  0  0
    4.9117   -2.9854    4.4874 C   0  0  0  0  0  0  0  0  0  0  0  0
    2.1628    2.4200    3.2267 N   0  0  0  0  0  0  0  0  0  0  0  0
    2.5405    1.7984   -2.9450 C   0  0  0  0  0  0  0  0  0  0  0  0
    1.4041    2.7294   -3.3319 C   0  0  0  0  0  0  0  0  0  0  0  0
    2.6107    3.6924    2.6479 C   0  0  0  0  0  0  0  0  0  0  0  0
    3.2881    4.5201    3.7021 C   0  0  0  0  0  0  0  0  0  0  0  0
    4.5306    4.9542    3.6702 C   0  0  0  0  0  0  0  0  0  0  0  0
    3.5213    3.4137    1.4643 C   0  0  0  0  0  0  0  0  0  0  0  0
    1.3105    4.3436    2.2085 C   0  0  0  0  0  0  0  0  0  0  0  0
  1  2  2  0
  1  4  1  0
  2  3  1  0
  2 10  1  0
  3  6  2  0
  3  9  1  0
  4  5  2  0
  4  7  1  0
  5  6  1  0
  7  8  2  0
  7 16  1  0
  9 12  1  0
 10 11  1  0
 12 13  1  0
 12 14  1  0
 12 18  1  0
 13 17  1  0
 14 15  2  0
 14 24  1  0
 16 25  1  0
 18 19  2  0
 18 20  1  0
 19 21  1  0
 20 22  2  0
 21 23  2  0
 22 23  1  0
 24 27  1  0
 25 26  1  0
 27 28  1  0
 27 30  1  0
 27 31  1  0
 28 29  2  0
M  END

$$$$

     RDKit          3D

 31 34  0  0  0  0  0  0  0  0999 V2000
    0.0000    0.0000    0.0000 C   0  0  0  0  0  0  0  0  0  0  0  0
    0.0000    0.0000    1.5366 C   0  0  0  0  0  0  0  0  0  0  0  0
    1.3954    0.0000    2.1588 C   0  0  0  0  0  0  0  0  0  0  0  0
    1.0432   -0.9455   -0.4978 C   0  0  0  0  0  0  0  0  0  0  0  0
    2.2468   -0.9455    0.0539 C   0  0  0  0  0  0  0  0  0  0  0  0
    2.4950    0.0208    1.1651 C   0  0  0  0  0  0  0  0  0  0  0  0
    0.2061    1.3897   -0.6439 C   0  0  0  0  0  0  0  0  0  0  0  0
    1.4556   -1.2254    3.0400 C   0  0  0  0  0  0  0  0  0  0  0  0
    2.3356   -1.6010    3.7549 O   0  0  0  0  0  0  0  0  0  0  0  0
    1.5573    1.9494   -0.2663 C   0  0  0  0  0  0  0  0  0  0  0  0
    1.7453    2.7317    0.7190 N   0  0  0  0  0  0  0  0  0  0  0  0
    0.2688   -1.9339    2.9361 N   0  0  0  0  0  0  0  0  0  0  0  0
    0.7888    3.1519    1.5325 N   0  0  0  0  0  0  0  0  0  0  0  0
    0.0203   -3.1522    3.5842 C   0  0  0  0  0  0  0  0  0  0  0  0
   -0.3811   -4.2995    2.9179 C   0  0  0  0  0  0  0  0  0  0  0  0
    0.1701   -3.2662    4.9495 C   0  0  0  0  0  0  0  0  0  0  0  0
   -0.6595   -5.4549    3.6001 C   0  0  0  0  0  0  0  0  0  0  0  0
   -0.0169   -4.4680    5.6309 C   0  0  0  0  0  0  0  0  0  0  0  0
   -0.5518   -5.5268    4.9882 C   0  0  0  0  0  0  0  0  0  0  0  0
   -0.6451   -1.3024    2.1071 C   0  0  0  0  0  0  0  0  0  0  0  0
   -1.7567   -1.7125    1.9091 O   0  0  0  0  0  0  0  0  0  0  0  0
    1.0694    3.9076    2.6797 C   0  0  0  0  0  0  0  0  0  0  0  0
    0.2731    4.1518    3.5167 O   0  0  0  0  0  0  0  0  0  0  0  0
    2.3387    4.2561    2.6528 O   0  0  0  0  0  0  0  0  0  0  0  0
    2.7225    1.5999   -1.0878 C   0  0  0  0  0  0  0  0  0  0  0  0
    3.9818    1.6051   -0.4898 C   0  0  0  0  0  0  0  0  0  0  0  0
    2.6253    1.1605   -2.3989 C   0  0  0  0  0  0  0  0  0  0  0  0
    5.1549    1.2401   -1.1487 C   0  0  0  0  0  0  0  0  0  0  0  0
    3.7891    0.8122   -3.0498 C   0  0  0  0  0  0  0  0  0  0  0  0
    5.0249    0.9107   -2.4971 C   0  0  0  0  0  0  0  0  0  0  0  0
   -0.9648   -6.8859    5.5509 C   0  0  0  0  0  0  0  0  0  0  0  0
  1  2  1  0
  1  4  1  0
  1  7  1  0
  2  3  1  0
  2 20  1  0
  3  6  1  0
  3  8  1  0
  4  5  2  0
  5  6  1  0
  7 10  1  0
  8  9  2  0
  8 12  1  0
 10 11  2  3
 10 25  1  0
 11 13  1  0
 12 14  1  0
 12 20  1  0
 13 22  1  0
 14 15  2  0
 14 16  1  0
 15 17  1  0
 16 18  2  0
 17 19  2  0
 18 19  1  0
 19 31  1  0
 20 21  2  0
 22 23  2  0
 22 24  1  0
 25 26  2  0
 25 27  1  0
 26 28  1  0
 27 29  2  0
 28 30  2  0
 29 30  1  0
M  END

$$$$

     RDKit          3D

 24 24  0  0  0  0  0  0  0  0999 V2000
    0.0000    0.0000    0.0000 C   0  0  0  0  0  0  0  0  0  0  0  0
    0.0000    0.0000    1.3941 C   0  0  0  0  0  0  0  0  0  0  0  0
    1.2223    0.0000    2.0645 C   0  0  0  0  0  0  0  0  0  0  0  0
    1.2059   -0.0592   -0.6971 C   0  0  0  0  0  0  0  0  0  0  0  0
    2.4132   -0.0592    0.0000 C   0  0  0  0  0  0  0  0  0  0  0  0
    2.4132   -0.0593    1.3941 C   0  0  0  0  0  0  0  0  0  0  0  0
   -1.1181   -0.0549    2.1981 N   0  0  0  0  0  0  0  0  0  0  0  0
    3.6655   -0.1104    2.0580 C   0  0  0  0  0  0  0  0  0  0  0  0
    4.6903   -0.1523    2.5870 N   0  0  0  0  0  0  0  0  0  0  0  0
   -2.4182   -0.3806    1.9126 C   0  0  0  0  0  0  0  0  0  0  0  0
   -3.6613    0.0467    2.8718 S   0  0  0  0  0  0  0  0  0  0  0  0
    1.1507   -0.1092   -2.1546 C   0  0  0  0  0  0  0  0  0  0  0  0
    0.4353   -0.8533   -2.9960 C   0  0  0  0  0  0  0  0  0  0  0  0
   -2.5790   -1.1962    0.8723 O   0  0  0  0  0  0  0  0  0  0  0  0
    3.9844   -0.1976   -0.8321 S   0  0  0  0  0  0  0  0  0  0  0  0
    4.8304    1.3274   -0.3321 C   0  0  0  0  0  0  0  0  0  0  0  0
   -0.4370   -1.9718   -2.6185 C   0  0  0  0  0  0  0  0  0  0  0  0
   -0.6157   -2.5231   -1.5896 O   0  0  0  0  0  0  0  0  0  0  0  0
   -3.8787   -1.4966    0.3670 C   0  0  0  0  0  0  0  0  0  0  0  0
   -4.3306   -0.4709   -0.6971 C   0  0  0  0  0  0  0  0  0  0  0  0
   -4.5347   -0.7285   -1.8454 O   0  0  0  0  0  0  0  0  0  0  0  0
   -4.4857    0.7760   -0.2561 O   0  0  0  0  0  0  0  0  0  0  0  0
   -0.9988   -2.3951   -3.7854 O   0  0  0  0  0  0  0  0  0  0  0  0
   -1.7664   -3.5828   -3.6788 C   0  0  0  0  0  0  0  0  0  0  0  0
  1  2  2  0
  1  4  1  0
  2  3  1  0
  2  7  1  0
  3  6  2  0
  4  5  2  0
  4 12  1  0
  5  6  1  0
  5 15  1  0
  6  8  1  0
  7 10  1  0
  8  9  3  0
 10 11  1  0
 10 14  1  0
 12 13  2  3
 13 17  1  0
 14 19  1  0
 15 16  1  0
 17 18  2  0
 17 23  1  0
 19 20  1  0
 20 21  2  0
 20 22  1  0
 23 24  1  0
M  END

$$$$

     RDKit          3D

 14 15  0  0  0  0  0  0  0  0999 V2000
    0.0000    0.0000    0.0000 C   0  0  0  0  0  0  0  0  0  0  0  0
    0.0000    0.0000    1.3862 C   0  0  0  0  0  0  0  0  0  0  0  0
    1.2042    0.0000    2.0726 C   0  0  0  0  0  0  0  0  0  0  0  0
    1.1990    0.0589   -0.6931 C   0  0  0  0  0  0  0  0  0  0  0  0
    2.3994    0.0589    0.0000 C   0  0  0  0  0  0  0  0  0  0  0  0
    2.3340   -0.0015    1.3833 C   0  0  0  0  0  0  0  0  0  0  0  0
   -1.2268   -0.0603   -0.7091 N   0  0  0  0  0  0  0  0  0  0  0  0
   -2.2762   -0.9215   -0.3586 C   0  0  0  0  0  0  0  0  0  0  0  0
   -2.2518   -1.6807    0.5543 O   0  0  0  0  0  0  0  0  0  0  0  0
   -1.5170    0.6742   -1.8099 C   0  0  0  0  0  0  0  0  0  0  0  0
   -0.7473    1.4645   -2.3025 O   0  0  0  0  0  0  0  0  0  0  0  0
   -3.6809   -0.6974   -1.4002 S   0  0  0  0  0  0  0  0  0  0  0  0
   -2.8834    0.3592   -2.3943 C   0  0  0  0  0  0  0  0  0  0  0  0
    3.4630   -0.0519    2.0878 F   0  0  0  0  0  0  0  0  0  0  0  0
  1  2  2  0
  1  4  1  0
  1  7  1  0
  2  3  1  0
  3  6  2  0
  4  5  2  0
  5  6  1  0
  6 14  1  0
  7  8  1  0
  7 10  1  0
  8  9  2  0
  8 12  1  0
 10 11  2  0
 10 13  1  0
 12 13  1  0
M  END

$$$$

     RDKit          3D

 30 31  0  0  0  0  0  0  0  0999 V2000
    0.0000    0.0000    0.0000 C   0  0  0  0  0  0  0  0  0  0  0  0
    0.0000    0.0000    1.3862 C   0  0  0  0  0  0  0  0  0  0  0  0
    1.1928    0.0000    2.0924 C   0  0  0  0  0  0  0  0  0  0  0  0
    1.1990    0.0589   -0.6931 C   0  0  0  0  0  0  0  0  0  0  0  0
    2.4144    0.1786    0.0120 C   0  0  0  0  0  0  0  0  0  0  0  0
    2.3485    0.1178    1.4032 C   0  0  0  0  0  0  0  0  0  0  0  0
    1.1504    0.0053   -2.1095 N   0  0  0  0  0  0  0  0  0  0  0  0
    3.5840    0.3654   -0.7383 N   0  0  0  0  0  0  0  0  0  0  0  0
    0.1060    0.6059   -2.9034 C   0  0  0  0  0  0  0  0  0  0  0  0
    3.6697    1.6280   -1.4653 C   0  0  0  0  0  0  0  0  0  0  0  0
   -1.1079   -0.3620   -3.0860 C   0  0  0  0  0  0  0  0  0  0  0  0
    3.9564    2.7995   -0.4847 C   0  0  0  0  0  0  0  0  0  0  0  0
    4.8470   -0.0153   -0.1336 C   0  0  0  0  0  0  0  0  0  0  0  0
   -1.0463   -1.4191   -2.1547 O   0  0  0  0  0  0  0  0  0  0  0  0
    1.5185   -1.2879   -2.6772 C   0  0  0  0  0  0  0  0  0  0  0  0
    0.3121   -2.2819   -2.6634 C   0  0  0  0  0  0  0  0  0  0  0  0
    0.1949   -3.0945   -3.9520 C   0  0  0  0  0  0  0  0  0  0  0  0
    0.4700   -3.2109   -1.4384 C   0  0  0  0  0  0  0  0  0  0  0  0
   -0.6888   -4.1087   -1.2032 N   0  0  0  0  0  0  0  0  0  0  0  0
   -1.4859   -3.6914    0.0101 C   0  0  0  0  0  0  0  0  0  0  0  0
   -0.2600   -5.5208   -1.2428 C   0  0  0  0  0  0  0  0  0  0  0  0
   -1.9679   -2.2428   -0.0492 C   0  0  0  0  0  0  0  0  0  0  0  0
   -0.7527   -3.9741    1.3306 C   0  0  0  0  0  0  0  0  0  0  0  0
    0.5657   -5.9432   -0.0065 C   0  0  0  0  0  0  0  0  0  0  0  0
   -3.0561   -2.0049    0.9837 C   0  0  0  0  0  0  0  0  0  0  0  0
   -0.3560   -5.4668    1.3832 C   0  0  0  0  0  0  0  0  0  0  0  0
    0.8227   -4.7638    0.7840 N   0  0  0  0  0  0  0  0  0  0  0  0
    1.5562   -5.0408    2.0248 C   0  0  0  0  0  0  0  0  0  0  0  0
    0.9975   -6.2018    2.7964 C   0  0  0  0  0  0  0  0  0  0  0  0
    1.7136   -7.2378    3.1801 C   0  0  0  0  0  0  0  0  0  0  0  0
  1  2  2  0
  1  4  1  0
  2  3  1  0
  3  6  2  0
  4  5  2  0
  4  7  1  0
  5  6  1  0
  5  8  1  0
  7  9  1  0
  7 15  1  0
  8 10  1  0
  8 13  1  0
  9 11  1  0
 10 12  1  0
 11 14  1  0
 15 16  1  0
 16 17  1  0
 16 18  1  0
 18 19  1  0
 19 20  1  0
 19 21  1  0
 20 22  1  0
 20 23  1  0
 21 24  1  0
 22 25  1  0
 23 26  1  0
 24 27  1  0
 26 27  1  0
 27 28  1  0
 28 29  1  0
 29 30  2  0
M  END

$$$$

     RDKit          3D

 31 32  0  0  0  0  0  0  0  0999 V2000
    0.0000    0.0000    0.0000 C   0  0  0  0  0  0  0  0  0  0  0  0
    0.0000    0.0000    1.3862 C   0  0  0  0  0  0  0  0  0  0  0  0
    1.2042    0.0000    2.0726 C   0  0  0  0  0  0  0  0  0  0  0  0
    1.1652    0.0000   -0.7508 C   0  0  0  0  0  0  0  0  0  0  0  0
    2.3574    0.0000    0.0174 C   0  0  0  0  0  0  0  0  0  0  0  0
    2.3574    0.0000    1.4035 C   0  0  0  0  0  0  0  0  0  0  0  0
    1.1531    0.0512    3.4891 N   0  0  0  0  0  0  0  0  0  0  0  0
    1.5843   -0.9180    4.3192 C   0  0  0  0  0  0  0  0  0  0  0  0
    1.5359   -0.7508    5.5218 O   0  0  0  0  0  0  0  0  0  0  0  0
    2.0615   -2.2478    3.6712 C   0  0  0  0  0  0  0  0  0  0  0  0
    1.2972    0.0547   -2.1457 O   0  0  0  0  0  0  0  0  0  0  0  0
    0.8584   -3.0410    3.1635 C   0  0  0  0  0  0  0  0  0  0  0  0
    0.5409    1.2409    4.0718 C   0  0  0  0  0  0  0  0  0  0  0  0
    2.8422   -2.9877    4.6204 O   0  0  0  0  0  0  0  0  0  0  0  0
   -0.9485    1.0695    4.4089 C   0  0  0  0  0  0  0  0  0  0  0  0
   -1.7967    1.6530    3.7374 O   0  0  0  0  0  0  0  0  0  0  0  0
    0.1910    0.1727   -2.8496 C   0  0  0  0  0  0  0  0  0  0  0  0
   -0.5958    1.2558   -2.5963 F   0  0  0  0  0  0  0  0  0  0  0  0
   -1.2207    0.2838    5.4491 N   0  0  0  0  0  0  0  0  0  0  0  0
   -2.4747   -0.1292    5.9889 C   0  0  0  0  0  0  0  0  0  0  0  0
   -2.4090   -1.0108    7.0669 C   0  0  0  0  0  0  0  0  0  0  0  0
   -3.6515    0.3486    5.4537 C   0  0  0  0  0  0  0  0  0  0  0  0
   -3.5517   -1.4392    7.7074 C   0  0  0  0  0  0  0  0  0  0  0  0
   -4.8138   -0.0885    6.1050 C   0  0  0  0  0  0  0  0  0  0  0  0
   -4.8098   -1.0143    7.3099 C   0  0  0  0  0  0  0  0  0  0  0  0
   -5.8899    0.4814    5.5290 O   0  0  0  0  0  0  0  0  0  0  0  0
    0.5789    0.2542   -4.1130 F   0  0  0  0  0  0  0  0  0  0  0  0
    2.1776   -3.5860    5.6279 C   0  0  0  0  0  0  0  0  0  0  0  0
    0.9639   -3.7220    5.6734 O   0  0  0  0  0  0  0  0  0  0  0  0
    3.0404   -4.0407    6.5459 N   0  0  0  0  0  0  0  0  0  0  0  0
   -7.1228    0.1605    6.1337 C   0  0  0  0  0  0  0  0  0  0  0  0
  1  2  2  0
  1  4  1  0
  2  3  1  0
  3  6  2  0
  3  7  1  0
  4  5  2  0
  4 11  1  0
  5  6  1  0
  7  8  1  0
  7 13  1  0
  8  9  2  0
  8 10  1  0
 10 12  1  0
 10 14  1  0
 11 17  1  0
 13 15  1  0
 14 28  1  0
 15 16  2  0
 15 19  1  0
 17 18  1  0
 17 27  1  0
 19 20  1  0
 20 21  1  0
 20 22  2  0
 21 23  2  0
 22 24  1  0
 23 25  2  0
 24 25  1  0
 24 26  1  0
 26 31  1  0
 28 29  2  0
 28 30  1  0
M  END

$$$$

     RDKit          3D

 27 27  0  0  0  0  0  0  0  0999 V2000
    0.0000    0.0000    0.0000 C   0  0  0  0  0  0  0  0  0  0  0  0
    0.0000    0.0000    1.3941 C   0  0  0  0  0  0  0  0  0  0  0  0
    1.2181    0.0000    2.0885 C   0  0  0  0  0  0  0  0  0  0  0  0
    1.1922    0.0586   -0.6891 C   0  0  0  0  0  0  0  0  0  0  0  0
    2.4227    0.1190   -0.0538 C   0  0  0  0  0  0  0  0  0  0  0  0
    2.3551    0.1157    1.3307 C   0  0  0  0  0  0  0  0  0  0  0  0
    1.2729   -0.0548    3.6057 C   0  0  0  0  0  0  0  0  0  0  0  0
    1.0986    1.3638    4.1700 C   0  0  0  0  0  0  0  0  0  0  0  0
    3.7497    0.1300   -0.7568 C   0  0  0  0  0  0  0  0  0  0  0  0
   -1.1519    0.0000    2.1364 O   0  0  0  0  0  0  0  0  0  0  0  0
    0.3793   -1.1559    4.1506 C   0  0  0  0  0  0  0  0  0  0  0  0
   -0.7356   -0.8785    4.8831 C   0  0  0  0  0  0  0  0  0  0  0  0
   -0.3089    1.7274    4.5472 C   0  0  0  0  0  0  0  0  0  0  0  0
   -0.8176    2.8089    4.4269 O   0  0  0  0  0  0  0  0  0  0  0  0
    0.7666   -2.5311    3.7790 C   0  0  0  0  0  0  0  0  0  0  0  0
    0.1808   -3.5509    4.0560 O   0  0  0  0  0  0  0  0  0  0  0  0
   -2.4064   -0.1236    1.4864 C   0  0  0  0  0  0  0  0  0  0  0  0
    1.8988   -2.4967    3.0500 O   0  0  0  0  0  0  0  0  0  0  0  0
   -1.7195   -1.8512    5.4217 C   0  0  0  0  0  0  0  0  0  0  0  0
   -1.0968    0.4227    5.1589 N   0  0  0  0  0  0  0  0  0  0  0  0
   -2.9298    1.1657    0.7937 C   0  0  0  0  0  0  0  0  0  0  0  0
    2.3082   -3.7438    2.4915 C   0  0  0  0  0  0  0  0  0  0  0  0
   -2.0053    2.3546    0.9934 C   0  0  0  0  0  0  0  0  0  0  0  0
    1.5537   -4.0454    1.1873 C   0  0  0  0  0  0  0  0  0  0  0  0
    2.1814   -3.5283    0.0451 O   0  0  0  0  0  0  0  0  0  0  0  0
   -4.2052    1.4817    1.2830 O   0  0  0  0  0  0  0  0  0  0  0  0
    2.1836   -2.1110   -0.0054 C   0  0  0  0  0  0  0  0  0  0  0  0
  1  2  2  0
  1  4  1  0
  2  3  1  0
  2 10  1  0
  3  6  2  0
  3  7  1  0
  4  5  2  0
  5  6  1  0
  5  9  1  0
  7  8  1  0
  7 11  1  0
  8 13  1  0
 10 17  1  0
 11 12  2  3
 11 15  1  0
 12 19  1  0
 12 20  1  0
 13 14  2  0
 15 16  2  0
 15 18  1  0
 17 21  1  0
 18 22  1  0
 21 23  1  0
 21 26  1  0
 22 24  1  0
 24 25  1  0
 25 27  1  0
M  END

$$$$

     RDKit          3D

 26 27  0  0  0  0  0  0  0  0999 V2000
    0.0000    0.0000    0.0000 C   0  0  0  0  0  0  0  0  0  0  0  0
    0.0000    0.0000    1.3941 C   0  0  0  0  0  0  0  0  0  0  0  0
    1.1860    0.0000    2.0963 C   0  0  0  0  0  0  0  0  0  0  0  0
    1.2320    0.0000   -0.6353 C   0  0  0  0  0  0  0  0  0  0  0  0
    2.4379   -0.0592    0.0617 C   0  0  0  0  0  0  0  0  0  0  0  0
    2.3713   -0.0609    1.4623 C   0  0  0  0  0  0  0  0  0  0  0  0
    3.4695   -0.0628    2.2423 O   0  0  0  0  0  0  0  0  0  0  0  0
   -1.3437    0.1323   -0.6963 C   0  0  0  0  0  0  0  0  0  0  0  0
   -1.9795    1.3219   -0.2850 O   0  0  0  0  0  0  0  0  0  0  0  0
   -1.2940    0.0717   -2.2309 C   0  0  0  0  0  0  0  0  0  0  0  0
    3.6853   -0.1100   -0.7419 C   0  0  0  0  0  0  0  0  0  0  0  0
    3.6259    0.0992   -1.9304 O   0  0  0  0  0  0  0  0  0  0  0  0
    4.9884   -0.4765   -0.0524 C   0  0  0  0  0  0  0  0  0  0  0  0
    6.2608    0.1888   -0.5746 C   0  0  0  0  0  0  0  0  0  0  0  0
    5.1637   -1.9951   -0.2792 C   0  0  0  0  0  0  0  0  0  0  0  0
    6.3394   -2.5555    0.3608 N   0  0  0  0  0  0  0  0  0  0  0  0
   -0.7845   -1.2519   -2.7752 C   0  0  0  0  0  0  0  0  0  0  0  0
   -2.7137    0.3950   -2.6936 C   0  0  0  0  0  0  0  0  0  0  0  0
   -3.4513    0.9118   -1.4268 C   0  0  0  0  0  0  0  0  0  0  0  0
   -4.4638   -0.0354   -1.1280 O   0  0  0  0  0  0  0  0  0  0  0  0
   -5.6649    0.3778   -1.7771 C   0  0  0  0  0  0  0  0  0  0  0  0
    7.5553   -1.9149   -0.1050 C   0  0  0  0  0  0  0  0  0  0  0  0
   -4.1947    2.0883   -1.5974 O   0  0  0  0  0  0  0  0  0  0  0  0
   -5.4741    1.8640   -2.0761 C   0  0  0  0  0  0  0  0  0  0  0  0
   -6.3656    2.7384   -1.1507 C   0  0  0  0  0  0  0  0  0  0  0  0
   -7.6091    2.1808   -0.8571 O   0  0  0  0  0  0  0  0  0  0  0  0
  1  2  2  0
  1  4  1  0
  1  8  1  0
  2  3  1  0
  3  6  2  0
  4  5  2  0
  5  6  1  0
  5 11  1  0
  6  7  1  0
  8  9  1  0
  8 10  1  0
 10 17  1  0
 10 18  1  0
 11 12  2  0
 11 13  1  0
 13 14  1  0
 13 15  1  0
 15 16  1  0
 16 22  1  0
 18 19  1  0
 19 20  1  0
 19 23  1  0
 20 21  1  0
 21 24  1  0
 23 24  1  0
 24 25  1  0
 25 26  1  0
M  END

$$$$

     RDKit          3D

 32 35  0  0  0  0  0  0  0  0999 V2000
    0.0000    0.0000    0.0000 C   0  0  0  0  0  0  0  0  0  0  0  0
    0.0000    0.0000    1.3941 C   0  0  0  0  0  0  0  0  0  0  0  0
    1.1860    0.0000    2.0963 C   0  0  0  0  0  0  0  0  0  0  0  0
    1.2391    0.0000   -0.6390 C   0  0  0  0  0  0  0  0  0  0  0  0
    2.3976    0.0000    0.1076 C   0  0  0  0  0  0  0  0  0  0  0  0
    2.3311    0.0589    1.4909 C   0  0  0  0  0  0  0  0  0  0  0  0
   -1.2268    0.0000   -0.7905 C   0  0  0  0  0  0  0  0  0  0  0  0
   -2.3104   -0.3287   -0.0609 N   0  0  0  0  0  0  0  0  0  0  0  0
   -1.3873    0.3875   -2.1117 C   0  0  0  0  0  0  0  0  0  0  0  0
   -3.4208   -0.3864   -0.7373 C   0  0  0  0  0  0  0  0  0  0  0  0
   -2.6675    0.3661   -2.6833 C   0  0  0  0  0  0  0  0  0  0  0  0
   -3.6072   -0.1606   -2.0522 N   0  0  0  0  0  0  0  0  0  0  0  0
   -2.8627    0.6860   -3.9691 O   0  0  0  0  0  0  0  0  0  0  0  0
   -4.5323   -0.6630   -0.0432 O   0  0  0  0  0  0  0  0  0  0  0  0
   -5.7010   -0.7645   -0.8258 C   0  0  0  0  0  0  0  0  0  0  0  0
   -4.2050    0.7773   -4.4670 C   0  0  0  0  0  0  0  0  0  0  0  0
    3.7216    0.1229    2.4559 Cl  0  0  0  0  0  0  0  0  0  0  0  0
   -5.0231   -0.4486   -3.9732 C   0  0  0  0  0  0  0  0  0  0  0  0
   -6.1192   -0.2489   -3.4711 O   0  0  0  0  0  0  0  0  0  0  0  0
   -4.2255    0.6382   -5.9884 C   0  0  0  0  0  0  0  0  0  0  0  0
   -4.8085    2.0943   -3.9815 C   0  0  0  0  0  0  0  0  0  0  0  0
   -5.6866   -1.9372   -1.7502 C   0  0  0  0  0  0  0  0  0  0  0  0
   -5.0479   -3.1263   -1.6342 C   0  0  0  0  0  0  0  0  0  0  0  0
   -6.4382   -1.8639   -2.8749 O   0  0  0  0  0  0  0  0  0  0  0  0
   -5.5050   -3.7795   -2.8170 C   0  0  0  0  0  0  0  0  0  0  0  0
   -6.3404   -3.0315   -3.5551 N   0  0  0  0  0  0  0  0  0  0  0  0
   -5.1153   -5.0951   -3.2893 C   0  0  0  0  0  0  0  0  0  0  0  0
   -4.0675   -5.8344   -2.7223 C   0  0  0  0  0  0  0  0  0  0  0  0
   -5.8064   -5.5984   -4.3904 C   0  0  0  0  0  0  0  0  0  0  0  0
   -3.7524   -7.0711   -3.3032 C   0  0  0  0  0  0  0  0  0  0  0  0
   -5.4398   -6.8159   -4.9017 C   0  0  0  0  0  0  0  0  0  0  0  0
   -4.4671   -7.5886   -4.3516 C   0  0  0  0  0  0  0  0  0  0  0  0
  1  2  2  0
  1  4  1  0
  1  7  1  0
  2  3  1  0
  3  6  2  0
  4  5  2  0
  5  6  1  0
  6 17  1  0
  7  8  2  0
  7  9  1  0
  8 10  1  0
  9 11  2  0
 10 12  2  0
 10 14  1  0
 11 12  1  0
 11 13  1  0
 13 16  1  0
 14 15  1  0
 15 22  1  0
 16 18  1  0
 16 20  1  0
 16 21  1  0
 18 19  2  0
 22 23  2  0
 22 24  1  0
 23 25  1  0
 24 26  1  0
 25 26  2  0
 25 27  1  0
 27 28  2  0
 27 29  1  0
 28 30  1  0
 29 31  2  0
 30 32  2  0
 31 32  1  0
M  END

$$$$

     RDKit          3D

 25 27  0  0  0  0  0  0  0  0999 V2000
    0.0000    0.0000    0.0000 C   0  0  0  0  0  0  0  0  0  0  0  0
    0.0000    0.0000    1.3862 C   0  0  0  0  0  0  0  0  0  0  0  0
    1.2154    0.0000    2.0527 C   0  0  0  0  0  0  0  0  0  0  0  0
    1.1652    0.0000   -0.7508 C   0  0  0  0  0  0  0  0  0  0  0  0
    2.3642    0.0589   -0.0578 C   0  0  0  0  0  0  0  0  0  0  0  0
    2.4322    0.0573    1.3347 C   0  0  0  0  0  0  0  0  0  0  0  0
   -1.2198    0.0599   -0.7051 N   0  0  0  0  0  0  0  0  0  0  0  0
   -2.4034   -0.5728   -0.3585 C   0  0  0  0  0  0  0  0  0  0  0  0
   -3.3199   -0.3703   -1.2172 N   0  0  0  0  0  0  0  0  0  0  0  0
   -2.8691    0.4231   -2.3561 C   0  0  0  0  0  0  0  0  0  0  0  0
   -1.3826    0.6005   -1.9720 C   0  0  0  0  0  0  0  0  0  0  0  0
   -0.5951    1.1684   -2.6676 O   0  0  0  0  0  0  0  0  0  0  0  0
   -2.5737   -1.6510    1.0130 S   0  0  0  0  0  0  0  0  0  0  0  0
   -3.8939   -2.7581    0.4124 C   0  0  0  0  0  0  0  0  0  0  0  0
   -3.4083   -3.9329   -0.4508 C   0  0  0  0  0  0  0  0  0  0  0  0
   -3.4755   -3.6819   -1.8369 O   0  0  0  0  0  0  0  0  0  0  0  0
    3.8512    0.1243   -0.9453 Cl  0  0  0  0  0  0  0  0  0  0  0  0
   -2.5308   -3.0085   -2.5215 C   0  0  0  0  0  0  0  0  0  0  0  0
   -1.2825   -2.7084   -1.9988 C   0  0  0  0  0  0  0  0  0  0  0  0
   -2.8908   -2.5711   -3.8128 C   0  0  0  0  0  0  0  0  0  0  0  0
   -0.4153   -1.9634   -2.7826 C   0  0  0  0  0  0  0  0  0  0  0  0
   -2.0339   -1.8307   -4.5845 C   0  0  0  0  0  0  0  0  0  0  0  0
   -0.7012   -1.4932   -4.0548 C   0  0  0  0  0  0  0  0  0  0  0  0
   -4.4986   -2.8749   -4.3527 Cl  0  0  0  0  0  0  0  0  0  0  0  0
    1.1057   -1.5669   -2.0530 Cl  0  0  0  0  0  0  0  0  0  0  0  0
  1  2  2  0
  1  4  1  0
  1  7  1  0
  2  3  1  0
  3  6  2  0
  4  5  2  0
  5  6  1  0
  5 17  1  0
  7  8  1  0
  7 11  1  0
  8  9  2  0
  8 13  1  0
  9 10  1  0
 10 11  1  0
 11 12  2  0
 13 14  1  0
 14 15  1  0
 15 16  1  0
 16 18  1  0
 18 19  2  0
 18 20  1  0
 19 21  1  0
 20 22  2  0
 20 24  1  0
 21 23  2  0
 21 25  1  0
 22 23  1  0
M  END

$$$$

     RDKit          3D

 31 33  0  0  0  0  0  0  0  0999 V2000
    0.0000    0.0000    0.0000 C   0  0  0  0  0  0  0  0  0  0  0  0
    0.0000    0.0000    1.3862 C   0  0  0  0  0  0  0  0  0  0  0  0
    1.1756    0.0000    2.1355 C   0  0  0  0  0  0  0  0  0  0  0  0
    1.1652    0.0000   -0.7508 C   0  0  0  0  0  0  0  0  0  0  0  0
    2.3371    0.0000    0.0043 C   0  0  0  0  0  0  0  0  0  0  0  0
    2.4036    0.0586    1.3797 C   0  0  0  0  0  0  0  0  0  0  0  0
   -1.5314    0.0000    2.1759 Cl  0  0  0  0  0  0  0  0  0  0  0  0
    1.2149   -0.0497   -2.1273 N   0  0  0  0  0  0  0  0  0  0  0  0
    3.8429   -0.0632   -0.8908 Cl  0  0  0  0  0  0  0  0  0  0  0  0
    0.0582    0.2819   -2.9234 C   0  0  0  0  0  0  0  0  0  0  0  0
   -1.0252   -0.8059   -2.9874 C   0  0  0  0  0  0  0  0  0  0  0  0
   -2.1996   -0.5854   -3.2079 O   0  0  0  0  0  0  0  0  0  0  0  0
    1.2292   -0.0536    3.6183 C   0  0  0  0  0  0  0  0  0  0  0  0
    0.5833    0.4836   -4.3440 C   0  0  0  0  0  0  0  0  0  0  0  0
   -0.5239   -2.0431   -2.8070 N   0  0  0  0  0  0  0  0  0  0  0  0
   -1.3400   -3.1609   -2.8848 N   0  0  0  0  0  0  0  0  0  0  0  0
   -0.8637   -4.3276   -2.3666 C   0  0  0  0  0  0  0  0  0  0  0  0
    0.2527   -4.4220   -1.8963 O   0  0  0  0  0  0  0  0  0  0  0  0
   -1.8267   -5.3981   -2.4596 C   0  0  0  0  0  0  0  0  0  0  0  0
   -1.7046   -6.7234   -2.1017 C   0  0  0  0  0  0  0  0  0  0  0  0
   -3.0571   -5.2070   -2.9530 O   0  0  0  0  0  0  0  0  0  0  0  0
   -2.9837   -7.2491   -2.3778 C   0  0  0  0  0  0  0  0  0  0  0  0
   -3.7848   -6.3568   -2.8825 C   0  0  0  0  0  0  0  0  0  0  0  0
   -5.1290   -6.4446   -3.3994 C   0  0  0  0  0  0  0  0  0  0  0  0
   -5.9647   -7.5899   -3.4363 C   0  0  0  0  0  0  0  0  0  0  0  0
   -5.6683   -5.2221   -3.8749 C   0  0  0  0  0  0  0  0  0  0  0  0
   -7.2786   -7.6139   -3.9018 C   0  0  0  0  0  0  0  0  0  0  0  0
   -6.9313   -5.2467   -4.3198 C   0  0  0  0  0  0  0  0  0  0  0  0
   -7.6980   -6.3586   -4.3400 C   0  0  0  0  0  0  0  0  0  0  0  0
   -5.3182   -8.6439   -2.9020 O   0  0  0  0  0  0  0  0  0  0  0  0
   -6.0929   -9.8206   -2.9626 C   0  0  0  0  0  0  0  0  0  0  0  0
  1  2  2  0
  1  4  1  0
  2  3  1  0
  2  7  1  0
  3  6  2  0
  3 13  1  0
  4  5  2  0
  4  8  1  0
  5  6  1  0
  5  9  1  0
  8 10  1  0
 10 11  1  0
 10 14  1  0
 11 12  2  0
 11 15  1  0
 15 16  1  0
 16 17  1  0
 17 18  2  0
 17 19  1  0
 19 20  2  0
 19 21  1  0
 20 22  1  0
 21 23  1  0
 22 23  2  0
 23 24  1  0
 24 25  2  0
 24 26  1  0
 25 27  1  0
 25 30  1  0
 26 28  2  0
 27 29  2  0
 28 29  1  0
 30 31  1  0
M  END

$$$$

     RDKit          3D

 27 28  0  0  0  0  0  0  0  0999 V2000
    0.0000    0.0000    0.0000 C   0  0  0  0  0  0  0  0  0  0  0  0
    0.0000    0.0000    1.3862 C   0  0  0  0  0  0  0  0  0  0  0  0
    1.1928    0.0000    2.0924 C   0  0  0  0  0  0  0  0  0  0  0  0
    1.2320    0.0000   -0.6353 C   0  0  0  0  0  0  0  0  0  0  0  0
    2.4710    0.0000    0.0036 C   0  0  0  0  0  0  0  0  0  0  0  0
    2.4038    0.0596    1.4029 C   0  0  0  0  0  0  0  0  0  0  0  0
   -1.2697    0.0000   -0.8182 C   0  0  0  0  0  0  0  0  0  0  0  0
    3.6006    0.1917    2.0736 O   0  0  0  0  0  0  0  0  0  0  0  0
    3.6377   -0.0483   -0.6524 O   0  0  0  0  0  0  0  0  0  0  0  0
    3.8538   -0.7926    2.9811 C   0  0  0  0  0  0  0  0  0  0  0  0
    3.1730   -1.9278    2.9456 N   0  0  0  0  0  0  0  0  0  0  0  0
    4.9016   -0.5591    3.8705 C   0  0  0  0  0  0  0  0  0  0  0  0
    3.4781   -2.8531    3.7973 C   0  0  0  0  0  0  0  0  0  0  0  0
    5.2300   -1.5590    4.7848 C   0  0  0  0  0  0  0  0  0  0  0  0
    4.4873   -2.7389    4.7640 C   0  0  0  0  0  0  0  0  0  0  0  0
    2.4522   -4.2564    3.6698 Cl  0  0  0  0  0  0  0  0  0  0  0  0
    6.2712   -1.4683    5.6711 N   0  0  0  0  0  0  0  0  0  0  0  0
    5.8043    0.8955    3.8030 Cl  0  0  0  0  0  0  0  0  0  0  0  0
    6.8471   -0.2167    6.0997 C   0  0  0  0  0  0  0  0  0  0  0  0
    8.0837    0.1813    5.2954 C   0  0  0  0  0  0  0  0  0  0  0  0
    1.2549    0.0622    3.8132 Cl  0  0  0  0  0  0  0  0  0  0  0  0
    6.9847   -2.6867    5.9252 C   0  0  0  0  0  0  0  0  0  0  0  0
    4.7464   -3.7451    5.6935 C   0  0  0  0  0  0  0  0  0  0  0  0
    4.8947   -4.5817    6.4745 N   0  0  0  0  0  0  0  0  0  0  0  0
    8.2359   -2.7139    5.0487 C   0  0  0  0  0  0  0  0  0  0  0  0
    9.0630   -0.9226    5.3393 N   0  0  0  0  0  0  0  0  0  0  0  0
   10.3326   -0.5359    4.6928 C   0  0  0  0  0  0  0  0  0  0  0  0
  1  2  2  0
  1  4  1  0
  1  7  1  0
  2  3  1  0
  3  6  2  0
  3 21  1  0
  4  5  2  0
  5  6  1  0
  5  9  1  0
  6  8  1  0
  8 10  1  0
 10 11  2  0
 10 12  1  0
 11 13  1  0
 12 14  2  0
 12 18  1  0
 13 15  2  0
 13 16  1  0
 14 15  1  0
 14 17  1  0
 15 23  1  0
 17 19  1  0
 17 22  1  0
 19 20  1  0
 20 26  1  0
 22 25  1  0
 23 24  3  0
 26 27  1  0
M  END

$$$$

     RDKit          3D

 31 33  0  0  0  0  0  0  0  0999 V2000
    0.0000    0.0000    0.0000 C   0  0  0  0  0  0  0  0  0  0  0  0
    0.0000    0.0000    1.4021 C   0  0  0  0  0  0  0  0  0  0  0  0
    1.1946    0.0000    2.1362 C   0  0  0  0  0  0  0  0  0  0  0  0
    1.2391    0.0000   -0.6390 C   0  0  0  0  0  0  0  0  0  0  0  0
    2.4043    0.0000    0.1119 C   0  0  0  0  0  0  0  0  0  0  0  0
    2.4043    0.0000    1.4980 C   0  0  0  0  0  0  0  0  0  0  0  0
   -1.2636   -0.1245   -0.8182 C   0  0  0  0  0  0  0  0  0  0  0  0
    3.6902   -0.0533   -0.6112 C   0  0  0  0  0  0  0  0  0  0  0  0
    4.7434   -0.1866   -0.0787 O   0  0  0  0  0  0  0  0  0  0  0  0
   -1.8782    1.1751   -1.1894 N   0  0  0  0  0  0  0  0  0  0  0  0
   -1.4237    0.0000    2.3196 Cl  0  0  0  0  0  0  0  0  0  0  0  0
   -2.2918    1.9175    0.0178 C   0  0  0  0  0  0  0  0  0  0  0  0
   -0.9568    1.9626   -2.0469 C   0  0  0  0  0  0  0  0  0  0  0  0
    1.1401   -0.0545    3.6447 C   0  0  0  0  0  0  0  0  0  0  0  0
    0.3054   -0.5323    4.3414 O   0  0  0  0  0  0  0  0  0  0  0  0
    2.3012    0.5077    4.0832 O   0  0  0  0  0  0  0  0  0  0  0  0
   -3.0375    3.1655   -0.4230 C   0  0  0  0  0  0  0  0  0  0  0  0
   -2.1453    4.0551   -1.2873 C   0  0  0  0  0  0  0  0  0  0  0  0
    3.6190    0.0630   -1.9513 O   0  0  0  0  0  0  0  0  0  0  0  0
   -1.6921    3.2182   -2.5129 C   0  0  0  0  0  0  0  0  0  0  0  0
   -2.8753    5.3137   -1.8084 C   0  0  0  0  0  0  0  0  0  0  0  0
    2.7364    0.0766    5.3178 C   0  0  0  0  0  0  0  0  0  0  0  0
    3.0650    1.0369    6.2619 C   0  0  0  0  0  0  0  0  0  0  0  0
    2.9381   -1.2716    5.6097 C   0  0  0  0  0  0  0  0  0  0  0  0
    3.5627    0.6449    7.5216 C   0  0  0  0  0  0  0  0  0  0  0  0
    3.4240   -1.7510    6.8253 C   0  0  0  0  0  0  0  0  0  0  0  0
    3.6676   -0.6933    7.8346 C   0  0  0  0  0  0  0  0  0  0  0  0
   -3.4888    6.1428   -0.6930 C   0  0  0  0  0  0  0  0  0  0  0  0
    3.6119   -3.0337    7.2448 O   0  0  0  0  0  0  0  0  0  0  0  0
    2.8294    3.1194    5.8834 I   0  0  0  0  0  0  0  0  0  0  0  0
    3.2456   -3.9936    6.2672 C   0  0  0  0  0  0  0  0  0  0  0  0
  1  2  2  0
  1  4  1  0
  1  7  1  0
  2  3  1  0
  2 11  1  0
  3  6  2  0
  3 14  1  0
  4  5  2  0
  5  6  1  0
  5  8  1  0
  7 10  1  0
  8  9  2  0
  8 19  1  0
 10 12  1  0
 10 13  1  0
 12 17  1  0
 13 20  1  0
 14 15  2  0
 14 16  1  0
 16 22  1  0
 17 18  1  0
 18 20  1  0
 18 21  1  0
 21 28  1  0
 22 23  2  0
 22 24  1  0
 23 25  1  0
 23 30  1  0
 24 26  1  0
 25 27  2  0
 26 27  1  0
 26 29  1  0
 29 31  1  0
M  END

$$$$

     RDKit          3D

 23 25  0  0  0  0  0  0  0  0999 V2000
    0.0000    0.0000    0.0000 C   0  0  0  0  0  0  0  0  0  0  0  0
    0.0000    0.0000    1.3941 C   0  0  0  0  0  0  0  0  0  0  0  0
    1.1622    0.0000    2.1349 C   0  0  0  0  0  0  0  0  0  0  0  0
    1.2533    0.0000   -0.6463 C   0  0  0  0  0  0  0  0  0  0  0  0
    2.4185    0.0000    0.1045 C   0  0  0  0  0  0  0  0  0  0  0  0
    2.3521    0.0589    1.4878 C   0  0  0  0  0  0  0  0  0  0  0  0
    3.5579    0.1069    2.2018 N   0  0  0  0  0  0  0  0  0  0  0  0
    1.3033    0.0500   -2.0307 O   0  0  0  0  0  0  0  0  0  0  0  0
    3.7743   -0.6659    3.3222 C   0  0  0  0  0  0  0  0  0  0  0  0
    2.5099    0.0021   -2.7114 C   0  0  0  0  0  0  0  0  0  0  0  0
    4.5957    1.0456    1.8502 C   0  0  0  0  0  0  0  0  0  0  0  0
    5.1193   -0.1926    3.8952 C   0  0  0  0  0  0  0  0  0  0  0  0
    5.6347    0.8996    2.9487 C   0  0  0  0  0  0  0  0  0  0  0  0
    6.6635    1.4877    3.1458 O   0  0  0  0  0  0  0  0  0  0  0  0
    3.9225   -2.0826    2.7944 N   0  0  0  0  0  0  0  0  0  0  0  0
    5.3835   -2.2890    2.7482 C   0  0  0  0  0  0  0  0  0  0  0  0
    6.1352   -1.3446    3.8494 C   0  0  0  0  0  0  0  0  0  0  0  0
    3.1386   -2.9785    3.6960 C   0  0  0  0  0  0  0  0  0  0  0  0
    2.2025    0.7199   -4.0349 C   0  0  0  0  0  0  0  0  0  0  0  0
    2.6991   -0.7016    4.3948 C   0  0  0  0  0  0  0  0  0  0  0  0
   -1.6428    0.0807    2.3437 Br  0  0  0  0  0  0  0  0  0  0  0  0
    1.6867   -2.6695    3.5333 C   0  0  0  0  0  0  0  0  0  0  0  0
    0.9267   -2.2111    4.5159 C   0  0  0  0  0  0  0  0  0  0  0  0
  1  2  2  0
  1  4  1  0
  2  3  1  0
  2 21  1  0
  3  6  2  0
  4  5  2  0
  4  8  1  0
  5  6  1  0
  6  7  1  0
  7  9  1  0
  7 11  1  0
  8 10  1  0
  9 12  1  0
  9 15  1  0
  9 20  1  0
 10 19  1  0
 11 13  1  0
 12 13  1  0
 12 17  1  0
 13 14  2  0
 15 16  1  0
 15 18  1  0
 16 17  1  0
 18 22  1  0
 22 23  2  0
M  END

$$$$

     RDKit          3D

 31 32  0  0  0  0  0  0  0  0999 V2000
    0.0000    0.0000    0.0000 C   0  0  0  0  0  0  0  0  0  0  0  0
    0.0000    0.0000    1.3782 C   0  0  0  0  0  0  0  0  0  0  0  0
    1.2042    0.0000    2.0647 C   0  0  0  0  0  0  0  0  0  0  0  0
    1.2059   -0.0592   -0.6971 C   0  0  0  0  0  0  0  0  0  0  0  0
    2.4202   -0.0592    0.0040 C   0  0  0  0  0  0  0  0  0  0  0  0
    2.4202   -0.0593    1.4142 C   0  0  0  0  0  0  0  0  0  0  0  0
    3.6095   -0.0107    2.0447 O   0  0  0  0  0  0  0  0  0  0  0  0
    1.0744   -0.1063   -2.0603 O   0  0  0  0  0  0  0  0  0  0  0  0
    2.1875   -0.4332   -2.7600 C   0  0  0  0  0  0  0  0  0  0  0  0
    3.4294   -0.4819   -2.2610 C   0  0  0  0  0  0  0  0  0  0  0  0
    3.6502    0.0143   -0.6480 O   0  0  0  0  0  0  0  0  0  0  0  0
    1.9009   -0.8266   -4.1627 C   0  0  0  0  0  0  0  0  0  0  0  0
    2.7816   -1.1006   -4.9323 O   0  0  0  0  0  0  0  0  0  0  0  0
    0.5835   -0.9346   -4.4594 O   0  0  0  0  0  0  0  0  0  0  0  0
    4.5699   -1.0684   -0.4477 C   0  0  0  0  0  0  0  0  0  0  0  0
    0.1654   -1.5245   -5.6700 C   0  0  0  0  0  0  0  0  0  0  0  0
    0.5643   -3.0262   -5.7118 C   0  0  0  0  0  0  0  0  0  0  0  0
    1.1026   -3.5941   -4.8094 O   0  0  0  0  0  0  0  0  0  0  0  0
    0.1490   -3.6329   -6.8130 O   0  0  0  0  0  0  0  0  0  0  0  0
   -1.2523   -1.3854   -5.8395 N   0  0  0  0  0  0  0  0  0  0  0  0
    4.0470   -2.3772   -1.0374 C   0  0  0  0  0  0  0  0  0  0  0  0
   -2.1837   -1.9228   -4.9900 C   0  0  0  0  0  0  0  0  0  0  0  0
   -1.8620   -2.8733   -4.0107 C   0  0  0  0  0  0  0  0  0  0  0  0
   -3.5278   -1.5015   -5.1554 C   0  0  0  0  0  0  0  0  0  0  0  0
   -2.8472   -3.4253   -3.2069 C   0  0  0  0  0  0  0  0  0  0  0  0
   -4.5122   -2.0551   -4.3518 C   0  0  0  0  0  0  0  0  0  0  0  0
   -4.1960   -3.0639   -3.3331 C   0  0  0  0  0  0  0  0  0  0  0  0
   -5.2194   -3.5565   -2.5110 C   0  0  0  0  0  0  0  0  0  0  0  0
   -6.0458   -3.9749   -1.8225 N   0  0  0  0  0  0  0  0  0  0  0  0
   -3.9411   -0.4592   -6.1675 C   0  0  0  0  0  0  0  0  0  0  0  0
   -2.4481   -4.3881   -2.1494 C   0  0  0  0  0  0  0  0  0  0  0  0
  1  2  2  0
  1  4  1  0
  2  3  1  0
  3  6  2  0
  4  5  2  0
  4  8  1  0
  5  6  1  0
  5 11  1  0
  6  7  1  0
  8  9  1  0
  9 10  2  0
  9 12  1  0
 11 15  1  0
 12 13  2  0
 12 14  1  0
 14 16  1  0
 15 21  1  0
 16 17  1  0
 16 20  1  0
 17 18  2  0
 17 19  1  0
 20 22  1  0
 22 23  2  0
 22 24  1  0
 23 25  1  0
 24 26  2  0
 24 30  1  0
 25 27  2  0
 25 31  1  0
 26 27  1  0
 27 28  1  0
 28 29  3  0
M  END

$$$$

     RDKit          3D

 31 34  0  0  0  0  0  0  0  0999 V2000
    0.0000    0.0000    0.0000 C   0  0  0  0  0  0  0  0  0  0  0  0
    0.0000    0.0000    1.3862 C   0  0  0  0  0  0  0  0  0  0  0  0
    1.2154    0.0000    2.0527 C   0  0  0  0  0  0  0  0  0  0  0  0
    1.1652    0.0000   -0.7508 C   0  0  0  0  0  0  0  0  0  0  0  0
    2.3972    0.0000   -0.1155 C   0  0  0  0  0  0  0  0  0  0  0  0
    2.3972    0.0000    1.2706 C   0  0  0  0  0  0  0  0  0  0  0  0
    3.7473   -0.0539    1.9063 C   0  0  0  0  0  0  0  0  0  0  0  0
    4.1005   -1.7476    2.5180 S   0  0  0  0  0  0  0  0  0  0  0  0
    4.6877   -2.4792    1.0372 C   0  0  0  0  0  0  0  0  0  0  0  0
    4.9956   -3.8015    1.1529 N   0  0  0  0  0  0  0  0  0  0  0  0
    4.8960   -1.7839   -0.0163 N   0  0  0  0  0  0  0  0  0  0  0  0
    5.5380   -4.5563    0.0816 C   0  0  0  0  0  0  0  0  0  0  0  0
    5.4017   -2.3913   -1.1358 C   0  0  0  0  0  0  0  0  0  0  0  0
    5.8132   -5.6903    0.3021 O   0  0  0  0  0  0  0  0  0  0  0  0
    5.7436   -3.7853   -1.1806 C   0  0  0  0  0  0  0  0  0  0  0  0
    5.5928   -1.7054   -2.2884 N   0  0  0  0  0  0  0  0  0  0  0  0
    6.2230   -4.3750   -2.3780 C   0  0  0  0  0  0  0  0  0  0  0  0
    6.0488   -2.2221   -3.5094 C   0  0  0  0  0  0  0  0  0  0  0  0
    6.4423   -3.6173   -3.4986 C   0  0  0  0  0  0  0  0  0  0  0  0
    6.1407   -1.5190   -4.5048 O   0  0  0  0  0  0  0  0  0  0  0  0
    5.2243   -0.2850   -2.2522 C   0  0  0  0  0  0  0  0  0  0  0  0
    6.3326    0.5562   -1.6423 C   0  0  0  0  0  0  0  0  0  0  0  0
   -1.1836    0.0000   -0.6104 F   0  0  0  0  0  0  0  0  0  0  0  0
    4.8537   -4.5298    2.3711 C   0  0  0  0  0  0  0  0  0  0  0  0
    5.9964   -4.7986    3.1380 C   0  0  0  0  0  0  0  0  0  0  0  0
    3.6206   -5.0200    2.7715 C   0  0  0  0  0  0  0  0  0  0  0  0
    5.8149   -5.5558    4.2944 C   0  0  0  0  0  0  0  0  0  0  0  0
    3.4440   -5.7705    3.9139 C   0  0  0  0  0  0  0  0  0  0  0  0
    4.5808   -5.9978    4.6365 C   0  0  0  0  0  0  0  0  0  0  0  0
    7.3244   -4.3586    2.8598 N   0  0  0  0  0  0  0  0  0  0  0  0
    8.2087   -4.5488    3.6712 O   0  0  0  0  0  0  0  0  0  0  0  0
  1  2  2  0
  1  4  1  0
  1 23  1  0
  2  3  1  0
  3  6  2  0
  4  5  2  0
  5  6  1  0
  6  7  1  0
  7  8  1  0
  8  9  1  0
  9 10  1  0
  9 11  2  0
 10 12  1  0
 10 24  1  0
 11 13  1  0
 12 14  2  0
 12 15  1  0
 13 15  2  0
 13 16  1  0
 15 17  1  0
 16 18  1  0
 16 21  1  0
 17 19  2  0
 18 19  1  0
 18 20  2  0
 21 22  1  0
 24 25  2  0
 24 26  1  0
 25 27  1  0
 25 30  1  0
 26 28  2  0
 27 29  2  0
 28 29  1  0
 30 31  2  0
M  END

$$$$

     RDKit          3D

 19 20  0  0  0  0  0  0  0  0999 V2000
    0.0000    0.0000    0.0000 C   0  0  0  0  0  0  0  0  0  0  0  0
    0.0000    0.0000    1.3941 C   0  0  0  0  0  0  0  0  0  0  0  0
    1.2111    0.0000    2.0845 C   0  0  0  0  0  0  0  0  0  0  0  0
    1.2059    0.0592   -0.6971 C   0  0  0  0  0  0  0  0  0  0  0  0
    2.4063    0.0592   -0.0040 C   0  0  0  0  0  0  0  0  0  0  0  0
    2.4747    0.0018    1.3873 C   0  0  0  0  0  0  0  0  0  0  0  0
   -1.2481    0.0000   -0.8042 C   0  0  0  0  0  0  0  0  0  0  0  0
   -1.2963    0.3666   -1.9690 O   0  0  0  0  0  0  0  0  0  0  0  0
    1.2609   -0.0497    3.4610 O   0  0  0  0  0  0  0  0  0  0  0  0
    3.6444    0.0606   -0.5730 O   0  0  0  0  0  0  0  0  0  0  0  0
    0.0432   -0.4416    4.0546 C   0  0  0  0  0  0  0  0  0  0  0  0
   -1.1007    0.3363    3.4268 C   0  0  0  0  0  0  0  0  0  0  0  0
   -1.1866    0.0064    2.0501 O   0  0  0  0  0  0  0  0  0  0  0  0
   -2.3464   -0.3930   -0.1307 N   0  0  0  0  0  0  0  0  0  0  0  0
   -3.5766   -0.5871   -0.8093 N   0  0  0  0  0  0  0  0  0  0  0  0
    3.8446    0.0623   -2.0019 C   0  0  0  0  0  0  0  0  0  0  0  0
    5.3758    0.1238   -2.1149 C   0  0  0  0  0  0  0  0  0  0  0  0
    3.2094   -1.1800   -2.6246 C   0  0  0  0  0  0  0  0  0  0  0  0
    3.2079    1.3050   -2.6220 C   0  0  0  0  0  0  0  0  0  0  0  0
  1  2  2  0
  1  4  1  0
  1  7  1  0
  2  3  1  0
  2 13  1  0
  3  6  2  0
  3  9  1  0
  4  5  2  0
  5  6  1  0
  5 10  1  0
  7  8  2  0
  7 14  1  0
  9 11  1  0
 10 16  1  0
 11 12  1  0
 12 13  1  0
 14 15  1  0
 16 17  1  0
 16 18  1  0
 16 19  1  0
M  END

$$$$

     RDKit          3D

 30 31  0  0  0  0  0  0  0  0999 V2000
    0.0000    0.0000    0.0000 C   0  0  0  0  0  0  0  0  0  0  0  0
    0.0000    0.0000    1.4102 C   0  0  0  0  0  0  0  0  0  0  0  0
    1.2251    0.0000    2.1085 C   0  0  0  0  0  0  0  0  0  0  0  0
    1.1990    0.0589   -0.6931 C   0  0  0  0  0  0  0  0  0  0  0  0
    2.3994    0.0589    0.0000 C   0  0  0  0  0  0  0  0  0  0  0  0
    2.4670    0.0021    1.3754 C   0  0  0  0  0  0  0  0  0  0  0  0
   -1.1922   -0.0586    2.0993 O   0  0  0  0  0  0  0  0  0  0  0  0
    1.3541   -0.0535    3.4718 O   0  0  0  0  0  0  0  0  0  0  0  0
   -2.2756    0.7449    1.6880 C   0  0  0  0  0  0  0  0  0  0  0  0
   -1.2301   -0.0604   -0.5645 O   0  0  0  0  0  0  0  0  0  0  0  0
    0.3320    0.4600    4.3103 C   0  0  0  0  0  0  0  0  0  0  0  0
   -1.3608   -0.1222   -1.9754 C   0  0  0  0  0  0  0  0  0  0  0  0
   -2.8360   -0.2413   -2.3179 C   0  0  0  0  0  0  0  0  0  0  0  0
    3.6710    0.0699   -0.7991 C   0  0  0  0  0  0  0  0  0  0  0  0
    3.8695   -1.2687   -1.5271 C   0  0  0  0  0  0  0  0  0  0  0  0
    3.7435   -2.3780   -0.6131 N   0  0  0  0  0  0  0  0  0  0  0  0
    2.8129   -3.3287   -0.7678 C   0  0  0  0  0  0  0  0  0  0  0  0
    2.1151   -3.4141   -1.7761 O   0  0  0  0  0  0  0  0  0  0  0  0
    2.7036   -4.3317    0.3562 C   0  0  0  0  0  0  0  0  0  0  0  0
    1.7722   -3.7812    1.4599 C   0  0  0  0  0  0  0  0  0  0  0  0
    1.5126   -4.8144    2.5551 C   0  0  0  0  0  0  0  0  0  0  0  0
    0.4335   -3.3180    0.8876 C   0  0  0  0  0  0  0  0  0  0  0  0
   -0.1715   -4.3737    0.1588 N   0  0  0  0  0  0  0  0  0  0  0  0
   -1.3301   -4.7974    0.3134 C   0  0  0  0  0  0  0  0  0  0  0  0
   -2.3325   -4.3366    1.1525 N   0  0  0  0  0  0  0  0  0  0  0  0
   -1.8502   -6.2420   -0.5531 S   0  0  0  0  0  0  0  0  0  0  0  0
   -3.5542   -4.9547    1.0940 C   0  0  0  0  0  0  0  0  0  0  0  0
   -4.5193   -4.5989    1.7538 O   0  0  0  0  0  0  0  0  0  0  0  0
   -3.5709   -6.1159    0.1963 C   0  0  0  0  0  0  0  0  0  0  0  0
   -4.5828   -6.9505   -0.0339 C   0  0  0  0  0  0  0  0  0  0  0  0
  1  2  2  0
  1  4  1  0
  1 10  1  0
  2  3  1  0
  2  7  1  0
  3  6  2  0
  3  8  1  0
  4  5  2  0
  5  6  1  0
  5 14  1  0
  7  9  1  0
  8 11  1  0
 10 12  1  0
 12 13  1  0
 14 15  1  0
 15 16  1  0
 16 17  1  0
 17 18  2  0
 17 19  1  0
 19 20  1  0
 20 21  1  0
 20 22  1  0
 22 23  1  0
 23 24  2  3
 24 25  1  0
 24 26  1  0
 25 27  1  0
 26 29  1  0
 27 28  2  0
 27 29  1  0
 29 30  2  0
M  END

$$$$

     RDKit          3D

 30 31  0  0  0  0  0  0  0  0999 V2000
    0.0000    0.0000    0.0000 C   0  0  0  0  0  0  0  0  0  0  0  0
    0.0000    0.0000    1.3862 C   0  0  0  0  0  0  0  0  0  0  0  0
    1.2042    0.0000    2.0726 C   0  0  0  0  0  0  0  0  0  0  0  0
    1.2059   -0.0592   -0.6971 C   0  0  0  0  0  0  0  0  0  0  0  0
    2.3831   -0.1171    0.0624 C   0  0  0  0  0  0  0  0  0  0  0  0
    2.3159   -0.1138    1.4390 C   0  0  0  0  0  0  0  0  0  0  0  0
   -1.3558    0.0666    2.0084 C   0  0  0  0  0  0  0  0  0  0  0  0
   -2.3377    0.5310    1.4482 O   0  0  0  0  0  0  0  0  0  0  0  0
   -1.4327   -0.4061    3.2840 N   0  0  0  0  0  0  0  0  0  0  0  0
   -2.5250   -0.4366    4.1625 C   0  0  0  0  0  0  0  0  0  0  0  0
   -2.2012   -1.0369    5.6605 S   0  0  0  0  0  0  0  0  0  0  0  0
    1.3314   -0.1186   -2.0525 O   0  0  0  0  0  0  0  0  0  0  0  0
    0.1510   -0.1203   -2.8092 C   0  0  0  0  0  0  0  0  0  0  0  0
   -0.7417   -1.3602   -2.6445 C   0  0  0  0  0  0  0  0  0  0  0  0
   -1.8907   -1.3637   -3.0178 O   0  0  0  0  0  0  0  0  0  0  0  0
   -3.6456    0.0880    3.6299 N   0  0  0  0  0  0  0  0  0  0  0  0
   -0.1347   -2.3838   -2.0468 N   0  0  0  0  0  0  0  0  0  0  0  0
   -0.8122   -3.6040   -1.7523 C   0  0  0  0  0  0  0  0  0  0  0  0
   -4.9205    0.2919    4.1969 C   0  0  0  0  0  0  0  0  0  0  0  0
   -5.7618    0.7466    3.4585 O   0  0  0  0  0  0  0  0  0  0  0  0
   -5.0209   -0.0423    5.4820 N   0  0  0  0  0  0  0  0  0  0  0  0
   -6.2952    0.0670    6.1675 C   0  0  0  0  0  0  0  0  0  0  0  0
   -7.0618   -1.2628    6.0935 C   0  0  0  0  0  0  0  0  0  0  0  0
   -6.0296    0.5302    7.5804 C   0  0  0  0  0  0  0  0  0  0  0  0
   -6.6769    1.6767    8.0387 C   0  0  0  0  0  0  0  0  0  0  0  0
   -5.2174   -0.1776    8.4653 C   0  0  0  0  0  0  0  0  0  0  0  0
   -6.4389    2.0368    9.3643 C   0  0  0  0  0  0  0  0  0  0  0  0
   -4.9861    0.1791    9.7763 C   0  0  0  0  0  0  0  0  0  0  0  0
   -5.5752    1.3624   10.1872 C   0  0  0  0  0  0  0  0  0  0  0  0
   -5.2763    1.7038   11.4637 F   0  0  0  0  0  0  0  0  0  0  0  0
  1  2  2  0
  1  4  1  0
  2  3  1  0
  2  7  1  0
  3  6  2  0
  4  5  2  0
  4 12  1  0
  5  6  1  0
  7  8  2  0
  7  9  1  0
  9 10  1  0
 10 11  1  0
 10 16  1  0
 12 13  1  0
 13 14  1  0
 14 15  2  0
 14 17  1  0
 16 19  1  0
 17 18  1  0
 19 20  2  0
 19 21  1  0
 21 22  1  0
 22 23  1  0
 22 24  1  0
 24 25  2  0
 24 26  1  0
 25 27  1  0
 26 28  2  0
 27 29  2  0
 28 29  1  0
 29 30  1  0
M  END

$$$$

     RDKit          3D

 31 34  0  0  0  0  0  0  0  0999 V2000
    0.0000    0.0000    0.0000 C   0  0  0  0  0  0  0  0  0  0  0  0
    0.0000    0.0000    1.3941 C   0  0  0  0  0  0  0  0  0  0  0  0
    1.1810    0.0000    2.1198 C   0  0  0  0  0  0  0  0  0  0  0  0
    1.2128   -0.0596   -0.7011 C   0  0  0  0  0  0  0  0  0  0  0  0
    2.3766   -0.0024    0.0498 C   0  0  0  0  0  0  0  0  0  0  0  0
    2.3786    0.0498    1.4349 C   0  0  0  0  0  0  0  0  0  0  0  0
   -1.3208    0.1301   -0.6844 C   0  0  0  0  0  0  0  0  0  0  0  0
   -1.4904    1.8524   -1.3845 S   0  0  0  0  0  0  0  0  0  0  0  0
    0.0811    2.5195   -0.9448 C   0  0  0  0  0  0  0  0  0  0  0  0
    0.3705    2.7718    0.3625 N   0  0  0  0  0  0  0  0  0  0  0  0
    0.9969    2.6511   -1.8497 N   0  0  0  0  0  0  0  0  0  0  0  0
    1.6739    3.1065    0.7841 C   0  0  0  0  0  0  0  0  0  0  0  0
    2.2589    2.9650   -1.5294 C   0  0  0  0  0  0  0  0  0  0  0  0
    2.5735    3.3091   -0.3363 C   0  0  0  0  0  0  0  0  0  0  0  0
    3.5811    3.2422   -2.6307 S   0  0  0  0  0  0  0  0  0  0  0  0
    3.9269    3.7052   -0.3392 C   0  0  0  0  0  0  0  0  0  0  0  0
    4.7349    3.4955   -1.3898 C   0  0  0  0  0  0  0  0  0  0  0  0
    1.9085    3.2116    1.9717 O   0  0  0  0  0  0  0  0  0  0  0  0
   -0.6706    2.6634    1.3556 C   0  0  0  0  0  0  0  0  0  0  0  0
    4.9877    4.0699    0.6594 C   0  0  0  0  0  0  0  0  0  0  0  0
    1.2635   -0.2013   -2.1696 C   0  0  0  0  0  0  0  0  0  0  0  0
    1.9339    0.7406   -2.9487 C   0  0  0  0  0  0  0  0  0  0  0  0
    0.7018   -1.3017   -2.8154 C   0  0  0  0  0  0  0  0  0  0  0  0
    1.9960    0.5414   -4.3031 C   0  0  0  0  0  0  0  0  0  0  0  0
    0.7678   -1.5012   -4.1776 C   0  0  0  0  0  0  0  0  0  0  0  0
    1.4969   -0.5738   -5.0233 C   0  0  0  0  0  0  0  0  0  0  0  0
    2.5528    1.5568   -5.0357 F   0  0  0  0  0  0  0  0  0  0  0  0
    6.1897    3.7514   -1.2402 C   0  0  0  0  0  0  0  0  0  0  0  0
    1.5386   -0.7059   -6.3788 N   0  0  0  0  0  0  0  0  0  0  0  0
    0.5317   -1.3098   -7.2032 C   0  0  0  0  0  0  0  0  0  0  0  0
    2.6228   -0.1367   -7.1730 C   0  0  0  0  0  0  0  0  0  0  0  0
  1  2  2  0
  1  4  1  0
  1  7  1  0
  2  3  1  0
  3  6  2  0
  4  5  2  0
  4 21  1  0
  5  6  1  0
  7  8  1  0
  8  9  1  0
  9 10  1  0
  9 11  2  0
 10 12  1  0
 10 19  1  0
 11 13  1  0
 12 14  1  0
 12 18  2  0
 13 14  2  0
 13 15  1  0
 14 16  1  0
 15 17  1  0
 16 17  2  0
 16 20  1  0
 17 28  1  0
 21 22  2  0
 21 23  1  0
 22 24  1  0
 23 25  2  0
 24 26  2  0
 24 27  1  0
 25 26  1  0
 26 29  1  0
 29 30  1  0
 29 31  1  0
M  END

$$$$

     RDKit          3D

 30 32  0  0  0  0  0  0  0  0999 V2000
    0.0000    0.0000    0.0000 C   0  0  0  0  0  0  0  0  0  0  0  0
    0.0000    0.0000    1.3782 C   0  0  0  0  0  0  0  0  0  0  0  0
    1.2111    0.0000    2.0687 C   0  0  0  0  0  0  0  0  0  0  0  0
    1.1786    0.0000   -0.7595 C   0  0  0  0  0  0  0  0  0  0  0  0
    2.3505    0.0000   -0.0043 C   0  0  0  0  0  0  0  0  0  0  0  0
    2.3505    0.0000    1.3818 C   0  0  0  0  0  0  0  0  0  0  0  0
    1.0503   -0.0531   -2.1149 O   0  0  0  0  0  0  0  0  0  0  0  0
    1.2606   -0.0494    3.4373 N   0  0  0  0  0  0  0  0  0  0  0  0
    2.3932   -0.0995    4.1358 N   0  0  0  0  0  0  0  0  0  0  0  0
    2.4881   -0.1004    5.4339 C   0  0  0  0  0  0  0  0  0  0  0  0
    3.7242   -0.0074    6.0181 N   0  0  0  0  0  0  0  0  0  0  0  0
    1.3137   -0.0444    6.2987 C   0  0  0  0  0  0  0  0  0  0  0  0
    1.3706    0.2915    7.5940 C   0  0  0  0  0  0  0  0  0  0  0  0
    0.1809    0.3819    8.3905 C   0  0  0  0  0  0  0  0  0  0  0  0
   -1.1726    0.3815    8.0918 C   0  0  0  0  0  0  0  0  0  0  0  0
    0.3108    0.5308    9.7466 N   0  0  0  0  0  0  0  0  0  0  0  0
   -1.9230    0.6524    9.2157 C   0  0  0  0  0  0  0  0  0  0  0  0
   -0.9873    0.6384   10.1970 C   0  0  0  0  0  0  0  0  0  0  0  0
   -3.6722    0.8312    9.3441 S   0  0  0  0  0  0  0  0  0  0  0  0
   -1.2087    0.8634   11.5880 C   0  0  0  0  0  0  0  0  0  0  0  0
   -3.8234    2.4418   10.0194 C   0  0  0  0  0  0  0  0  0  0  0  0
   -2.5688    1.0929   11.7902 N   0  0  0  0  0  0  0  0  0  0  0  0
   -0.4073    0.8725   12.5013 O   0  0  0  0  0  0  0  0  0  0  0  0
   -5.1890    3.2835   10.3429 S   0  0  0  0  0  0  0  0  0  0  0  0
   -2.8419    1.3841   13.2115 C   0  0  0  0  0  0  0  0  0  0  0  0
    1.5031    0.4854   10.5579 C   0  0  0  0  0  0  0  0  0  0  0  0
    2.2054   -0.0046   -2.9224 C   0  0  0  0  0  0  0  0  0  0  0  0
   -2.2178    2.6667   13.7590 C   0  0  0  0  0  0  0  0  0  0  0  0
   -2.5644    0.2501   14.1836 C   0  0  0  0  0  0  0  0  0  0  0  0
   -2.6413    0.1974   14.1527 C   0  0  0  0  0  0  0  0  0  0  0  0
  1  2  2  0
  1  4  1  0
  2  3  1  0
  3  6  2  0
  3  8  1  0
  4  5  2  0
  4  7  1  0
  5  6  1  0
  7 27  1  0
  8  9  1  0
  9 10  2  3
 10 11  1  0
 10 12  1  0
 12 13  2  3
 13 14  1  0
 14 15  2  0
 14 16  1  0
 15 17  1  0
 16 18  1  0
 16 26  1  0
 17 18  2  0
 17 19  1  0
 18 20  1  0
 19 21  1  0
 20 22  1  0
 20 23  2  0
 21 24  1  0
 22 25  1  0
 25 28  1  0
 25 29  1  0
 25 30  1  0
 29 30  3  0
M  END

$$$$

     RDKit          3D

 29 30  0  0  0  0  0  0  0  0999 V2000
    0.0000    0.0000    0.0000 C   0  0  0  0  0  0  0  0  0  0  0  0
    0.0000    0.0000    1.3782 C   0  0  0  0  0  0  0  0  0  0  0  0
    1.2111    0.0000    2.0687 C   0  0  0  0  0  0  0  0  0  0  0  0
    1.1652    0.0000   -0.7508 C   0  0  0  0  0  0  0  0  0  0  0  0
    2.3972    0.0000   -0.1155 C   0  0  0  0  0  0  0  0  0  0  0  0
    2.3972    0.0000    1.2627 C   0  0  0  0  0  0  0  0  0  0  0  0
    1.3510   -0.0579    3.5457 C   0  0  0  0  0  0  0  0  0  0  0  0
    2.3420   -0.4243    4.1458 O   0  0  0  0  0  0  0  0  0  0  0  0
    0.2440    0.3517    4.2265 N   0  0  0  0  0  0  0  0  0  0  0  0
    0.1791    0.2050    5.6521 C   0  0  0  0  0  0  0  0  0  0  0  0
    1.6212    0.2929    6.2492 C   0  0  0  0  0  0  0  0  0  0  0  0
    2.1043   -0.5507    6.9313 O   0  0  0  0  0  0  0  0  0  0  0  0
    2.1197    1.4965    6.1213 O   0  0  0  0  0  0  0  0  0  0  0  0
   -0.4485   -1.0184    6.0895 N   0  0  0  0  0  0  0  0  0  0  0  0
   -1.4259   -1.6428    5.3450 C   0  0  0  0  0  0  0  0  0  0  0  0
   -1.9644   -0.9359    4.3533 N   0  0  0  0  0  0  0  0  0  0  0  0
   -1.8611   -2.9628    5.5838 C   0  0  0  0  0  0  0  0  0  0  0  0
   -2.9291   -1.4731    3.6502 C   0  0  0  0  0  0  0  0  0  0  0  0
   -2.8711   -3.5252    4.8479 C   0  0  0  0  0  0  0  0  0  0  0  0
   -3.4345   -2.7447    3.8712 C   0  0  0  0  0  0  0  0  0  0  0  0
   -0.5515    1.4971    6.1130 C   0  0  0  0  0  0  0  0  0  0  0  0
   -0.4177    1.6398    7.4303 F   0  0  0  0  0  0  0  0  0  0  0  0
   -4.5188   -3.3426    2.9910 C   0  0  0  0  0  0  0  0  0  0  0  0
   -0.0184    2.6264    5.5679 F   0  0  0  0  0  0  0  0  0  0  0  0
    3.4563    1.6920    6.5796 C   0  0  0  0  0  0  0  0  0  0  0  0
   -5.4599   -3.9896    3.7053 F   0  0  0  0  0  0  0  0  0  0  0  0
   -1.8639    1.5181    5.8879 F   0  0  0  0  0  0  0  0  0  0  0  0
   -3.9950   -4.2488    2.1432 F   0  0  0  0  0  0  0  0  0  0  0  0
   -5.1444   -2.4355    2.2297 F   0  0  0  0  0  0  0  0  0  0  0  0
  1  2  2  0
  1  4  1  0
  2  3  1  0
  3  6  2  0
  3  7  1  0
  4  5  2  0
  5  6  1  0
  7  8  2  0
  7  9  1  0
  9 10  1  0
 10 11  1  0
 10 14  1  0
 10 21  1  0
 11 12  2  0
 11 13  1  0
 13 25  1  0
 14 15  1  0
 15 16  2  0
 15 17  1  0
 16 18  1  0
 17 19  2  0
 18 20  2  0
 19 20  1  0
 20 23  1  0
 21 22  1  0
 21 24  1  0
 21 27  1  0
 23 26  1  0
 23 28  1  0
 23 29  1  0
M  END

$$$$

     RDKit          3D

 29 30  0  0  0  0  0  0  0  0999 V2000
    0.0000    0.0000    0.0000 C   0  0  0  0  0  0  0  0  0  0  0  0
    0.0000    0.0000    1.3862 C   0  0  0  0  0  0  0  0  0  0  0  0
    1.1996    0.0000    2.0964 C   0  0  0  0  0  0  0  0  0  0  0  0
    1.2059    0.0592   -0.6971 C   0  0  0  0  0  0  0  0  0  0  0  0
    2.3764    0.1167    0.0581 C   0  0  0  0  0  0  0  0  0  0  0  0
    2.3785    0.0575    1.4509 C   0  0  0  0  0  0  0  0  0  0  0  0
    3.5893    0.2286   -0.4989 O   0  0  0  0  0  0  0  0  0  0  0  0
    3.7946    0.1079   -1.9052 C   0  0  0  0  0  0  0  0  0  0  0  0
   -1.1388    0.0000   -0.7338 O   0  0  0  0  0  0  0  0  0  0  0  0
    1.0720   -0.0528    3.4441 O   0  0  0  0  0  0  0  0  0  0  0  0
   -2.4150   -0.1257   -0.0725 C   0  0  0  0  0  0  0  0  0  0  0  0
   -2.3038    0.5536    1.2144 N   0  0  0  0  0  0  0  0  0  0  0  0
    2.2591   -0.1059    4.2035 C   0  0  0  0  0  0  0  0  0  0  0  0
    3.8143   -1.3733   -2.3139 C   0  0  0  0  0  0  0  0  0  0  0  0
    5.0960    0.7952   -2.2819 C   0  0  0  0  0  0  0  0  0  0  0  0
    3.6531   -0.0159    2.1922 C   0  0  0  0  0  0  0  0  0  0  0  0
    4.7023   -0.2944    1.6777 O   0  0  0  0  0  0  0  0  0  0  0  0
   -2.9239    1.7043    1.5992 C   0  0  0  0  0  0  0  0  0  0  0  0
   -2.7583    2.1063    2.7190 O   0  0  0  0  0  0  0  0  0  0  0  0
    2.6761    0.8160   -2.6680 C   0  0  0  0  0  0  0  0  0  0  0  0
   -2.8232   -1.5795    0.0935 C   0  0  0  0  0  0  0  0  0  0  0  0
   -1.8840   -2.5988    0.0741 C   0  0  0  0  0  0  0  0  0  0  0  0
   -4.1217   -1.9373    0.3857 C   0  0  0  0  0  0  0  0  0  0  0  0
   -2.2983   -3.9056    0.2791 C   0  0  0  0  0  0  0  0  0  0  0  0
   -4.5352   -3.2603    0.5974 C   0  0  0  0  0  0  0  0  0  0  0  0
   -3.6259   -4.2643    0.5077 C   0  0  0  0  0  0  0  0  0  0  0  0
   -5.8636   -3.4134    0.9312 O   0  0  0  0  0  0  0  0  0  0  0  0
   -1.4237   -4.9386    0.2207 O   0  0  0  0  0  0  0  0  0  0  0  0
   -6.4101   -4.6915    1.1147 C   0  0  0  0  0  0  0  0  0  0  0  0
  1  2  2  0
  1  4  1  0
  1  9  1  0
  2  3  1  0
  3  6  2  0
  3 10  1  0
  4  5  2  0
  5  6  1  0
  5  7  1  0
  6 16  1  0
  7  8  1  0
  8 14  1  0
  8 15  1  0
  8 20  1  0
  9 11  1  0
 10 13  1  0
 11 12  1  0
 11 21  1  0
 12 18  1  0
 16 17  2  0
 18 19  2  0
 21 22  2  0
 21 23  1  0
 22 24  1  0
 23 25  2  0
 24 26  2  0
 24 28  1  0
 25 26  1  0
 25 27  1  0
 27 29  1  0
M  END

$$$$

     RDKit          3D

 32 33  0  0  0  0  0  0  0  0999 V2000
    0.0000    0.0000    0.0000 C   0  0  0  0  0  0  0  0  0  0  0  0
    0.0000    0.0000    1.3862 C   0  0  0  0  0  0  0  0  0  0  0  0
    1.2251    0.0000    2.0845 C   0  0  0  0  0  0  0  0  0  0  0  0
    1.1990    0.0589   -0.6931 C   0  0  0  0  0  0  0  0  0  0  0  0
    2.4295    0.1194   -0.0578 C   0  0  0  0  0  0  0  0  0  0  0  0
    2.4317    0.0601    1.3351 C   0  0  0  0  0  0  0  0  0  0  0  0
   -1.1719    0.0000    2.1413 N   0  0  0  0  0  0  0  0  0  0  0  0
    1.0953   -0.0538    3.4556 O   0  0  0  0  0  0  0  0  0  0  0  0
    3.6564    0.2325   -0.6211 O   0  0  0  0  0  0  0  0  0  0  0  0
   -2.4677    0.0000    1.7462 C   0  0  0  0  0  0  0  0  0  0  0  0
   -2.7994    0.0000    0.5772 O   0  0  0  0  0  0  0  0  0  0  0  0
    2.2947   -0.1068    4.1953 C   0  0  0  0  0  0  0  0  0  0  0  0
   -3.4799    0.0591    2.8424 C   0  0  0  0  0  0  0  0  0  0  0  0
   -3.1814    0.6871    4.0416 C   0  0  0  0  0  0  0  0  0  0  0  0
   -4.7490   -0.4634    2.6478 C   0  0  0  0  0  0  0  0  0  0  0  0
   -4.2040    0.7625    5.0449 C   0  0  0  0  0  0  0  0  0  0  0  0
   -5.7639   -0.4217    3.5442 C   0  0  0  0  0  0  0  0  0  0  0  0
   -5.4454    0.2068    4.7770 N   0  0  0  0  0  0  0  0  0  0  0  0
   -4.0341    1.2504    6.1524 O   0  0  0  0  0  0  0  0  0  0  0  0
    3.7227    0.2364   -2.0542 C   0  0  0  0  0  0  0  0  0  0  0  0
   -1.9380    1.2494    4.3635 N   0  0  0  0  0  0  0  0  0  0  0  0
   -1.3898    2.2921    3.9233 C   0  0  0  0  0  0  0  0  0  0  0  0
   -2.0488    3.3646    2.6313 S   0  0  0  0  0  0  0  0  0  0  0  0
   -6.5074    0.2120    5.7902 C   0  0  0  0  0  0  0  0  0  0  0  0
   -6.8794    1.6474    6.1933 C   0  0  0  0  0  0  0  0  0  0  0  0
    5.0152    0.9742   -2.3593 C   0  0  0  0  0  0  0  0  0  0  0  0
    3.7584   -1.2008   -2.5714 C   0  0  0  0  0  0  0  0  0  0  0  0
   -6.0830   -0.5467    7.0255 C   0  0  0  0  0  0  0  0  0  0  0  0
   -0.6408    4.4749    2.8276 C   0  0  0  0  0  0  0  0  0  0  0  0
   -7.5341    1.3481    7.5609 C   0  0  0  0  0  0  0  0  0  0  0  0
   -0.7231    5.2500    4.1315 C   0  0  0  0  0  0  0  0  0  0  0  0
    0.6592    3.6926    2.7523 C   0  0  0  0  0  0  0  0  0  0  0  0
  1  2  2  0
  1  4  1  0
  2  3  1  0
  2  7  1  0
  3  6  2  0
  3  8  1  0
  4  5  2  0
  5  6  1  0
  5  9  1  0
  7 10  1  0
  8 12  1  0
  9 20  1  0
 10 11  2  0
 10 13  1  0
 13 14  2  0
 13 15  1  0
 14 16  1  0
 14 21  1  0
 15 17  2  0
 16 18  1  0
 16 19  2  0
 17 18  1  0
 18 24  1  0
 20 26  1  0
 20 27  1  0
 21 22  2  3
 22 23  1  0
 23 29  1  0
 24 25  1  0
 24 28  1  0
 25 30  1  0
 29 31  1  0
 29 32  1  0
M  END

$$$$

     RDKit          3D

 17 17  0  0  0  0  0  0  0  0999 V2000
    0.0000    0.0000    0.0000 C   0  0  0  0  0  0  0  0  0  0  0  0
    0.0000    0.0000    1.3782 C   0  0  0  0  0  0  0  0  0  0  0  0
    1.1698    0.0000    2.1512 C   0  0  0  0  0  0  0  0  0  0  0  0
    1.2320    0.0000   -0.6353 C   0  0  0  0  0  0  0  0  0  0  0  0
    2.3972    0.0000    0.1155 C   0  0  0  0  0  0  0  0  0  0  0  0
    2.3972    0.0000    1.5017 C   0  0  0  0  0  0  0  0  0  0  0  0
    1.0444   -0.0519    3.4760 O   0  0  0  0  0  0  0  0  0  0  0  0
    1.3009   -0.0689   -2.5430 Br  0  0  0  0  0  0  0  0  0  0  0  0
   -1.3046    0.0000    2.0510 N   0  0  0  0  0  0  0  0  0  0  0  0
    2.1529   -0.0023    4.3723 C   0  0  0  0  0  0  0  0  0  0  0  0
    1.6535    0.0929    5.8317 C   0  0  0  0  0  0  0  0  0  0  0  0
    0.7732   -0.9593    6.2221 N   0  0  0  0  0  0  0  0  0  0  0  0
    1.2157   -2.3317    6.2721 C   0  0  0  0  0  0  0  0  0  0  0  0
    0.9408   -3.0431    4.9178 C   0  0  0  0  0  0  0  0  0  0  0  0
    0.0192   -2.3093    4.1135 O   0  0  0  0  0  0  0  0  0  0  0  0
   -0.6439   -0.8234    6.0448 C   0  0  0  0  0  0  0  0  0  0  0  0
   -1.1065   -1.9090    4.8778 C   0  0  0  0  0  0  0  0  0  0  0  0
  1  2  2  0
  1  4  1  0
  2  3  1  0
  2  9  1  0
  3  6  2  0
  3  7  1  0
  4  5  2  0
  4  8  1  0
  5  6  1  0
  7 10  1  0
 10 11  1  0
 11 12  1  0
 12 13  1  0
 12 16  1  0
 13 14  1  0
 14 15  1  0
 15 17  1  0
M  END

$$$$

     RDKit          3D

 31 34  0  0  0  0  0  0  0  0999 V2000
    0.0000    0.0000    0.0000 C   0  0  0  0  0  0  0  0  0  0  0  0
    0.0000    0.0000    1.4021 C   0  0  0  0  0  0  0  0  0  0  0  0
    1.2294    0.0000    2.0764 C   0  0  0  0  0  0  0  0  0  0  0  0
    1.1990    0.0589   -0.6931 C   0  0  0  0  0  0  0  0  0  0  0  0
    2.4074   -0.0601    0.0080 C   0  0  0  0  0  0  0  0  0  0  0  0
    2.4074   -0.0592    1.3784 C   0  0  0  0  0  0  0  0  0  0  0  0
   -1.2059    0.0000    2.1792 C   0  0  0  0  0  0  0  0  0  0  0  0
   -1.1562    0.0497    3.5556 C   0  0  0  0  0  0  0  0  0  0  0  0
    0.0937    0.1035    4.2744 C   0  0  0  0  0  0  0  0  0  0  0  0
    1.2178    0.1014    3.4907 O   0  0  0  0  0  0  0  0  0  0  0  0
    0.3149    0.1986    5.4655 O   0  0  0  0  0  0  0  0  0  0  0  0
   -2.4115   -0.0908    4.3034 C   0  0  0  0  0  0  0  0  0  0  0  0
   -3.5088   -0.0431    3.6474 N   0  0  0  0  0  0  0  0  0  0  0  0
   -2.3578   -0.0566    1.5133 O   0  0  0  0  0  0  0  0  0  0  0  0
   -4.8047   -0.2236    4.2557 C   0  0  0  0  0  0  0  0  0  0  0  0
    1.3379    0.2121   -2.0320 O   0  0  0  0  0  0  0  0  0  0  0  0
   -2.2599   -0.3279    5.7874 C   0  0  0  0  0  0  0  0  0  0  0  0
   -4.7281   -1.0127    5.5515 C   0  0  0  0  0  0  0  0  0  0  0  0
    0.3075    0.9314   -2.6896 C   0  0  0  0  0  0  0  0  0  0  0  0
   -0.2425    2.1355   -1.8921 C   0  0  0  0  0  0  0  0  0  0  0  0
   -1.3967    2.4843   -1.9686 O   0  0  0  0  0  0  0  0  0  0  0  0
    0.7327    2.6793   -1.1112 N   0  0  0  0  0  0  0  0  0  0  0  0
    0.5616    3.2082    0.1673 C   0  0  0  0  0  0  0  0  0  0  0  0
    1.6991    3.4365    0.9546 C   0  0  0  0  0  0  0  0  0  0  0  0
   -0.7130    3.4526    0.6765 C   0  0  0  0  0  0  0  0  0  0  0  0
    1.5746    3.8355    2.2680 C   0  0  0  0  0  0  0  0  0  0  0  0
   -0.8327    3.8585    2.0049 C   0  0  0  0  0  0  0  0  0  0  0  0
    0.3108    3.9540    2.8251 C   0  0  0  0  0  0  0  0  0  0  0  0
   -2.2158    3.9701    2.5330 C   0  0  0  0  0  0  0  0  0  0  0  0
   -3.1890    3.4089    2.0885 O   0  0  0  0  0  0  0  0  0  0  0  0
   -3.6833   -0.4127    6.4625 C   0  0  0  0  0  0  0  0  0  0  0  0
  1  2  2  0
  1  4  1  0
  2  3  1  0
  2  7  1  0
  3  6  2  0
  3 10  1  0
  4  5  2  0
  4 16  1  0
  5  6  1  0
  7  8  2  0
  7 14  1  0
  8  9  1  0
  8 12  1  0
  9 10  1  0
  9 11  2  0
 12 13  2  0
 12 17  1  0
 13 15  1  0
 15 18  1  0
 16 19  1  0
 17 31  1  0
 18 31  1  0
 19 20  1  0
 20 21  2  0
 20 22  1  0
 22 23  1  0
 23 24  2  0
 23 25  1  0
 24 26  1  0
 25 27  2  0
 26 28  2  0
 27 28  1  0
 27 29  1  0
 29 30  2  0
M  END

$$$$

     RDKit          3D

 21 22  0  0  0  0  0  0  0  0999 V2000
    0.0000    0.0000    0.0000 C   0  0  0  0  0  0  0  0  0  0  0  0
    0.0000    0.0000    1.3782 C   0  0  0  0  0  0  0  0  0  0  0  0
    1.1996    0.0000    2.0885 C   0  0  0  0  0  0  0  0  0  0  0  0
    1.1990   -0.0589   -0.6931 C   0  0  0  0  0  0  0  0  0  0  0  0
    2.4295   -0.1194   -0.0578 C   0  0  0  0  0  0  0  0  0  0  0  0
    2.4317   -0.0605    1.3271 C   0  0  0  0  0  0  0  0  0  0  0  0
    3.6194   -0.1678    2.0947 N   0  0  0  0  0  0  0  0  0  0  0  0
    3.3437   -1.0654    3.2338 C   0  0  0  0  0  0  0  0  0  0  0  0
    2.2266   -0.5149    4.1038 C   0  0  0  0  0  0  0  0  0  0  0  0
    4.6484    0.7241    1.9409 C   0  0  0  0  0  0  0  0  0  0  0  0
    4.7279    1.4618    0.9961 O   0  0  0  0  0  0  0  0  0  0  0  0
    5.4970    0.6166    2.9716 O   0  0  0  0  0  0  0  0  0  0  0  0
    6.6458    1.4590    2.8996 C   0  0  0  0  0  0  0  0  0  0  0  0
    1.2488   -0.0492    3.4493 N   0  0  0  0  0  0  0  0  0  0  0  0
    7.2919    1.4670    4.2458 C   0  0  0  0  0  0  0  0  0  0  0  0
    6.9339    0.8419    5.3478 C   0  0  0  0  0  0  0  0  0  0  0  0
    4.6371   -1.3315    4.0197 C   0  0  0  0  0  0  0  0  0  0  0  0
    2.9026   -2.4288    2.6549 C   0  0  0  0  0  0  0  0  0  0  0  0
    5.6132   -2.1473    3.2053 C   0  0  0  0  0  0  0  0  0  0  0  0
    5.5067   -2.3761    2.0308 O   0  0  0  0  0  0  0  0  0  0  0  0
    6.6249   -2.6232    3.9287 O   0  0  0  0  0  0  0  0  0  0  0  0
  1  2  2  0
  1  4  1  0
  2  3  1  0
  3  6  2  0
  3 14  1  0
  4  5  2  0
  5  6  1  0
  6  7  1  0
  7  8  1  0
  7 10  1  0
  8  9  1  0
  8 17  1  0
  8 18  1  0
  9 14  2  0
 10 11  2  0
 10 12  1  0
 12 13  1  0
 13 15  1  0
 15 16  2  0
 17 19  1  0
 19 20  2  0
 19 21  1  0
M  END

$$$$

     RDKit          3D

 15 17  0  0  0  0  0  0  0  0999 V2000
    0.0000    0.0000    0.0000 C   0  0  0  0  0  0  0  0  0  0  0  0
    0.0000    0.0000    1.5191 C   0  0  0  0  0  0  0  0  0  0  0  0
    1.4417    0.0000    1.9981 C   0  0  0  0  0  0  0  0  0  0  0  0
    0.6089   -1.2874   -0.5035 C   0  0  0  0  0  0  0  0  0  0  0  0
    1.8513   -1.7319    0.1770 C   0  0  0  0  0  0  0  0  0  0  0  0
    2.2710   -1.1027    1.3672 C   0  0  0  0  0  0  0  0  0  0  0  0
    2.5887   -2.6868   -0.2912 N   0  0  0  0  0  0  0  0  0  0  0  0
    3.4426   -1.5117    1.9298 C   0  0  0  0  0  0  0  0  0  0  0  0
    3.6883   -3.2038    0.2537 C   0  0  0  0  0  0  0  0  0  0  0  0
    4.1825   -2.5376    1.3063 C   0  0  0  0  0  0  0  0  0  0  0  0
    4.4024   -4.2387   -0.2506 N   0  0  0  0  0  0  0  0  0  0  0  0
    5.4232   -3.0490    1.9008 C   0  0  0  0  0  0  0  0  0  0  0  0
    5.4862   -4.7356    0.2135 C   0  0  0  0  0  0  0  0  0  0  0  0
    5.9822   -4.0135    1.0636 N   0  0  0  0  0  0  0  0  0  0  0  0
    5.9336   -2.6844    2.9254 O   0  0  0  0  0  0  0  0  0  0  0  0
  1  2  1  0
  1  4  1  0
  2  3  1  0
  3  6  1  0
  4  5  1  0
  5  6  2  0
  5  7  1  0
  6  8  1  0
  7  9  2  0
  8 10  2  0
  9 10  1  0
  9 11  1  0
 10 12  1  0
 11 13  2  0
 12 14  1  0
 12 15  2  0
 13 14  2  0
M  END

$$$$

     RDKit          3D

 31 33  0  0  0  0  0  0  0  0999 V2000
    0.0000    0.0000    0.0000 C   0  0  0  0  0  0  0  0  0  0  0  0
    0.0000    0.0000    1.3941 C   0  0  0  0  0  0  0  0  0  0  0  0
    1.2181    0.0000    2.0885 C   0  0  0  0  0  0  0  0  0  0  0  0
    1.2250    0.0000   -0.6317 C   0  0  0  0  0  0  0  0  0  0  0  0
    2.4499    0.0000    0.0000 C   0  0  0  0  0  0  0  0  0  0  0  0
    2.4499    0.0000    1.3941 C   0  0  0  0  0  0  0  0  0  0  0  0
   -1.2462    0.0000    2.0368 N   0  0  0  0  0  0  0  0  0  0  0  0
    1.1588    0.1431    3.5997 C   0  0  0  0  0  0  0  0  0  0  0  0
    3.6024   -0.0535    2.1336 O   0  0  0  0  0  0  0  0  0  0  0  0
    4.8472   -0.1112    1.4910 C   0  0  0  0  0  0  0  0  0  0  0  0
   -2.5074   -0.0620    1.5903 C   0  0  0  0  0  0  0  0  0  0  0  0
   -2.7278   -0.1370    0.3763 O   0  0  0  0  0  0  0  0  0  0  0  0
   -3.5841   -0.0929    2.6615 C   0  0  0  0  0  0  0  0  0  0  0  0
    1.2700    1.5519    3.8904 N   0  0  0  0  0  0  0  0  0  0  0  0
    0.3222    2.3529    4.3945 C   0  0  0  0  0  0  0  0  0  0  0  0
    2.3341    2.3240    3.6346 N   0  0  0  0  0  0  0  0  0  0  0  0
    0.7743    3.5789    4.4724 N   0  0  0  0  0  0  0  0  0  0  0  0
    1.9805    3.5501    4.0157 C   0  0  0  0  0  0  0  0  0  0  0  0
    2.8249    4.7196    3.9859 C   0  0  0  0  0  0  0  0  0  0  0  0
    2.3962    5.9874    4.3472 C   0  0  0  0  0  0  0  0  0  0  0  0
    4.1334    4.5459    3.5130 C   0  0  0  0  0  0  0  0  0  0  0  0
    3.1632    7.1596    4.2870 C   0  0  0  0  0  0  0  0  0  0  0  0
    4.9608    5.6442    3.4201 C   0  0  0  0  0  0  0  0  0  0  0  0
    4.4475    6.9046    3.8083 C   0  0  0  0  0  0  0  0  0  0  0  0
    2.7087    8.3920    4.7043 N   0  0  0  0  0  0  0  0  0  0  0  0
    2.1872   -0.6534    4.3505 C   0  0  0  0  0  0  0  0  0  0  0  0
    2.9356   -0.1366    5.3337 C   0  0  0  0  0  0  0  0  0  0  0  0
    2.8569    1.2860    5.7202 C   0  0  0  0  0  0  0  0  0  0  0  0
    3.4306    1.7698    6.6759 O   0  0  0  0  0  0  0  0  0  0  0  0
   -3.0867    0.4821    3.8976 N   0  0  0  0  0  0  0  0  0  0  0  0
    3.8964   -0.9755    6.0770 C   0  0  0  0  0  0  0  0  0  0  0  0
  1  2  2  0
  1  4  1  0
  2  3  1  0
  2  7  1  0
  3  6  2  0
  3  8  1  0
  4  5  2  0
  5  6  1  0
  6  9  1  0
  7 11  1  0
  8 14  1  0
  8 26  1  0
  9 10  1  0
 11 12  2  0
 11 13  1  0
 13 30  1  0
 14 15  1  0
 14 16  1  0
 15 17  2  0
 16 18  2  0
 17 18  1  0
 18 19  1  0
 19 20  2  0
 19 21  1  0
 20 22  1  0
 21 23  2  0
 22 24  2  0
 22 25  1  0
 23 24  1  0
 26 27  2  3
 27 28  1  0
 27 31  1  0
 28 29  2  0
M  END

$$$$

     RDKit          3D

 31 33  0  0  0  0  0  0  0  0999 V2000
    0.0000    0.0000    0.0000 C   0  0  0  0  0  0  0  0  0  0  0  0
    0.0000    0.0000    1.3704 C   0  0  0  0  0  0  0  0  0  0  0  0
    1.2065    0.0000    2.0847 C   0  0  0  0  0  0  0  0  0  0  0  0
    1.1786    0.0000   -0.7595 C   0  0  0  0  0  0  0  0  0  0  0  0
    2.3708   -0.0586   -0.0704 C   0  0  0  0  0  0  0  0  0  0  0  0
    2.4361   -0.1760    1.3253 C   0  0  0  0  0  0  0  0  0  0  0  0
    3.5951   -0.2870    2.0481 N   0  0  0  0  0  0  0  0  0  0  0  0
    3.7073   -0.4547    3.4194 C   0  0  0  0  0  0  0  0  0  0  0  0
    2.4108   -0.4483    4.1078 C   0  0  0  0  0  0  0  0  0  0  0  0
    4.7501   -0.5918    4.0140 O   0  0  0  0  0  0  0  0  0  0  0  0
    1.2788   -0.3031    3.5137 N   0  0  0  0  0  0  0  0  0  0  0  0
    4.7552   -0.2191    1.3072 O   0  0  0  0  0  0  0  0  0  0  0  0
    1.1244   -0.0542   -2.2594 C   0  0  0  0  0  0  0  0  0  0  0  0
    5.2484    1.1192    1.2853 C   0  0  0  0  0  0  0  0  0  0  0  0
    2.4820   -0.5731    5.6027 C   0  0  0  0  0  0  0  0  0  0  0  0
    1.2853   -1.3748    6.0855 C   0  0  0  0  0  0  0  0  0  0  0  0
    0.2982   -0.8960    6.5747 O   0  0  0  0  0  0  0  0  0  0  0  0
    5.5674    1.6609    2.6492 C   0  0  0  0  0  0  0  0  0  0  0  0
    4.5865    2.2876    3.4595 C   0  0  0  0  0  0  0  0  0  0  0  0
    6.8004    1.4626    3.2506 C   0  0  0  0  0  0  0  0  0  0  0  0
    4.9203    2.7330    4.7464 C   0  0  0  0  0  0  0  0  0  0  0  0
    7.1271    1.9050    4.5404 C   0  0  0  0  0  0  0  0  0  0  0  0
    6.1856    2.5095    5.2449 C   0  0  0  0  0  0  0  0  0  0  0  0
    3.2402    2.5415    2.9327 C   0  0  0  0  0  0  0  0  0  0  0  0
    2.8144    2.2742    1.8265 O   0  0  0  0  0  0  0  0  0  0  0  0
    1.4963   -2.6628    5.9129 O   0  0  0  0  0  0  0  0  0  0  0  0
    2.4296    3.0968    3.8654 O   0  0  0  0  0  0  0  0  0  0  0  0
    8.3374    1.6442    5.1093 N   0  0  0  0  0  0  0  0  0  0  0  0
    0.4136   -3.5139    6.1762 C   0  0  0  0  0  0  0  0  0  0  0  0
    9.3090    0.7314    4.5153 C   0  0  0  0  0  0  0  0  0  0  0  0
   10.1506    0.3449    5.7305 C   0  0  0  0  0  0  0  0  0  0  0  0
  1  2  2  0
  1  4  1  0
  2  3  1  0
  3  6  2  0
  3 11  1  0
  4  5  2  0
  4 13  1  0
  5  6  1  0
  6  7  1  0
  7  8  1  0
  7 12  1  0
  8  9  1  0
  8 10  2  0
  9 11  2  0
  9 15  1  0
 12 14  1  0
 14 18  1  0
 15 16  1  0
 16 17  2  0
 16 26  1  0
 18 19  2  0
 18 20  1  0
 19 21  1  0
 19 24  1  0
 20 22  2  0
 21 23  2  0
 22 23  1  0
 22 28  1  0
 24 25  2  0
 24 27  1  0
 26 29  1  0
 28 30  1  0
 30 31  1  0
M  END

$$$$

     RDKit          3D

 14 15  0  0  0  0  0  0  0  0999 V2000
    0.0000    0.0000    0.0000 C   0  0  0  0  0  0  0  0  0  0  0  0
    0.0000    0.0000    1.5279 C   0  0  0  0  0  0  0  0  0  0  0  0
    1.4244    0.0000    2.0805 C   0  0  0  0  0  0  0  0  0  0  0  0
    0.7406   -1.2355   -0.5093 C   0  0  0  0  0  0  0  0  0  0  0  0
    2.1810   -1.2355    0.0000 C   0  0  0  0  0  0  0  0  0  0  0  0
    2.1910   -1.2295    1.5278 C   0  0  0  0  0  0  0  0  0  0  0  0
    1.3693   -0.0551    3.6064 C   0  0  0  0  0  0  0  0  0  0  0  0
   -1.4164    0.0000   -0.5729 C   0  0  0  0  0  0  0  0  0  0  0  0
    3.5323   -1.1773    2.0570 N   0  0  0  0  0  0  0  0  0  0  0  0
    4.5433   -0.2818    1.8765 C   0  0  0  0  0  0  0  0  0  0  0  0
    3.9789   -2.1351    2.9046 N   0  0  0  0  0  0  0  0  0  0  0  0
    5.5240   -0.7090    2.6440 N   0  0  0  0  0  0  0  0  0  0  0  0
    5.1332   -1.8030    3.2256 N   0  0  0  0  0  0  0  0  0  0  0  0
    4.5003    0.8376    1.1009 N   0  0  0  0  0  0  0  0  0  0  0  0
  1  2  1  0
  1  4  1  0
  1  8  1  0
  2  3  1  0
  3  6  1  0
  3  7  1  0
  4  5  1  0
  5  6  1  0
  6  9  1  0
  9 10  1  0
  9 11  1  0
 10 12  2  0
 10 14  1  0
 11 13  2  0
 12 13  1  0
M  END

$$$$

     RDKit          3D

 30 32  0  0  0  0  0  0  0  0999 V2000
    0.0000    0.0000    0.0000 C   0  0  0  0  0  0  0  0  0  0  0  0
    0.0000    0.0000    1.3862 C   0  0  0  0  0  0  0  0  0  0  0  0
    1.1689    0.0000    2.1312 C   0  0  0  0  0  0  0  0  0  0  0  0
    1.2462    0.0000   -0.6426 C   0  0  0  0  0  0  0  0  0  0  0  0
    2.4315   -0.0582    0.0425 C   0  0  0  0  0  0  0  0  0  0  0  0
    2.4308   -0.1211    1.4433 C   0  0  0  0  0  0  0  0  0  0  0  0
    3.6688   -0.1222    2.0124 O   0  0  0  0  0  0  0  0  0  0  0  0
    3.8004   -0.2361    3.3956 C   0  0  0  0  0  0  0  0  0  0  0  0
    3.3279   -1.5623    3.9663 C   0  0  0  0  0  0  0  0  0  0  0  0
    2.9261   -2.4317    3.2185 O   0  0  0  0  0  0  0  0  0  0  0  0
   -1.2339    0.0000   -0.7951 C   0  0  0  0  0  0  0  0  0  0  0  0
   -1.0853    0.4244   -1.9928 N   0  0  0  0  0  0  0  0  0  0  0  0
   -2.0524    0.5692   -2.8856 N   0  0  0  0  0  0  0  0  0  0  0  0
    3.3604   -1.7900    5.4332 C   0  0  0  0  0  0  0  0  0  0  0  0
    2.8963   -2.9574    6.0000 C   0  0  0  0  0  0  0  0  0  0  0  0
    3.8931   -0.7830    6.3050 C   0  0  0  0  0  0  0  0  0  0  0  0
    2.7693   -3.3708    7.2435 N   0  0  0  0  0  0  0  0  0  0  0  0
    3.7540   -1.2297    7.6525 N   0  0  0  0  0  0  0  0  0  0  0  0
    4.3721    0.3235    6.1054 O   0  0  0  0  0  0  0  0  0  0  0  0
    3.1896   -2.4284    8.0612 C   0  0  0  0  0  0  0  0  0  0  0  0
    4.1779   -0.3330    8.5753 C   0  0  0  0  0  0  0  0  0  0  0  0
    3.0267   -2.8048    9.4020 C   0  0  0  0  0  0  0  0  0  0  0  0
    4.1440   -0.6679    9.8956 C   0  0  0  0  0  0  0  0  0  0  0  0
    3.4040   -1.8388   10.2858 C   0  0  0  0  0  0  0  0  0  0  0  0
    4.6716    0.3347   10.8684 C   0  0  0  0  0  0  0  0  0  0  0  0
   -1.8339    0.9891   -4.1968 C   0  0  0  0  0  0  0  0  0  0  0  0
   -0.7203    1.2360   -4.5512 O   0  0  0  0  0  0  0  0  0  0  0  0
   -3.0668    1.0312   -5.0685 C   0  0  0  0  0  0  0  0  0  0  0  0
    3.2634   -2.3016   11.6806 C   0  0  0  0  0  0  0  0  0  0  0  0
    2.5170   -1.5043   12.5854 C   0  0  0  0  0  0  0  0  0  0  0  0
  1  2  2  0
  1  4  1  0
  1 11  1  0
  2  3  1  0
  3  6  2  0
  4  5  2  0
  5  6  1  0
  6  7  1  0
  7  8  1  0
  8  9  1  0
  9 10  2  0
  9 14  1  0
 11 12  2  3
 12 13  1  0
 13 26  1  0
 14 15  2  0
 14 16  1  0
 15 17  1  0
 16 18  1  0
 16 19  2  0
 17 20  2  0
 18 20  1  0
 18 21  1  0
 20 22  1  0
 21 23  2  0
 22 24  2  0
 23 24  1  0
 23 25  1  0
 24 29  1  0
 26 27  2  0
 26 28  1  0
 29 30  1  0
M  END

$$$$

     RDKit          3D

 31 32  0  0  0  0  0  0  0  0999 V2000
    0.0000    0.0000    0.0000 C   0  0  0  0  0  0  0  0  0  0  0  0
    0.0000    0.0000    1.3862 C   0  0  0  0  0  0  0  0  0  0  0  0
    1.2111    0.0000    2.0766 C   0  0  0  0  0  0  0  0  0  0  0  0
    1.1652    0.0000   -0.7508 C   0  0  0  0  0  0  0  0  0  0  0  0
    2.3972    0.0000   -0.1155 C   0  0  0  0  0  0  0  0  0  0  0  0
    2.3972    0.0000    1.3028 C   0  0  0  0  0  0  0  0  0  0  0  0
   -1.3216    0.0649    2.1501 C   0  0  0  0  0  0  0  0  0  0  0  0
    3.6535    0.0528    1.8071 O   0  0  0  0  0  0  0  0  0  0  0  0
    3.6061   -0.0531   -0.7419 O   0  0  0  0  0  0  0  0  0  0  0  0
   -1.6714    1.4615    2.3315 N   0  0  0  0  0  0  0  0  0  0  0  0
    3.7064    0.0042    3.2154 C   0  0  0  0  0  0  0  0  0  0  0  0
    3.7146    0.2589   -2.0799 C   0  0  0  0  0  0  0  0  0  0  0  0
    4.5631   -0.5467   -2.8380 C   0  0  0  0  0  0  0  0  0  0  0  0
    3.1419    1.4061   -2.6472 C   0  0  0  0  0  0  0  0  0  0  0  0
    4.7423   -0.2405   -4.1780 C   0  0  0  0  0  0  0  0  0  0  0  0
    3.3674    1.6391   -4.0030 C   0  0  0  0  0  0  0  0  0  0  0  0
    4.0436    0.8203   -4.7905 C   0  0  0  0  0  0  0  0  0  0  0  0
    5.5800   -0.9161   -5.0010 O   0  0  0  0  0  0  0  0  0  0  0  0
    2.7840    2.7274   -4.6152 O   0  0  0  0  0  0  0  0  0  0  0  0
    4.2279    1.0698   -6.2166 C   0  0  0  0  0  0  0  0  0  0  0  0
    3.7163    1.9772   -6.8287 O   0  0  0  0  0  0  0  0  0  0  0  0
   -1.3006   -0.6467    3.4051 N   0  0  0  0  0  0  0  0  0  0  0  0
    1.6867    2.3810   -5.4718 C   0  0  0  0  0  0  0  0  0  0  0  0
    2.3962    2.2085   -1.8107 O   0  0  0  0  0  0  0  0  0  0  0  0
    1.2025    2.7624   -2.3174 C   0  0  0  0  0  0  0  0  0  0  0  0
   -1.4937   -1.9522    3.5130 C   0  0  0  0  0  0  0  0  0  0  0  0
   -1.0760   -2.7147    4.5926 C   0  0  0  0  0  0  0  0  0  0  0  0
   -0.2739   -2.0740    5.6182 C   0  0  0  0  0  0  0  0  0  0  0  0
   -0.0266   -0.8704    5.6492 O   0  0  0  0  0  0  0  0  0  0  0  0
    6.3038   -2.0501   -4.5520 C   0  0  0  0  0  0  0  0  0  0  0  0
    5.4002   -3.2892   -4.4547 C   0  0  0  0  0  0  0  0  0  0  0  0
  1  2  2  0
  1  4  1  0
  2  3  1  0
  2  7  1  0
  3  6  2  0
  4  5  2  0
  5  6  1  0
  5  9  1  0
  6  8  1  0
  7 10  1  0
  7 22  1  0
  8 11  1  0
  9 12  1  0
 12 13  2  0
 12 14  1  0
 13 15  1  0
 14 16  2  0
 14 24  1  0
 15 17  2  0
 15 18  1  0
 16 17  1  0
 16 19  1  0
 17 20  1  0
 18 30  1  0
 19 23  1  0
 20 21  2  0
 22 26  2  0
 24 25  1  0
 26 27  2  0
 27 28  1  0
 28 29  2  0
 30 31  1  0
M  END

$$$$

     RDKit          3D

 18 20  0  0  0  0  0  0  0  0999 V2000
    0.0000    0.0000    0.0000 C   0  0  0  0  0  0  0  0  0  0  0  0
    0.0000    0.0000    1.3862 C   0  0  0  0  0  0  0  0  0  0  0  0
    1.1996    0.0000    2.0964 C   0  0  0  0  0  0  0  0  0  0  0  0
    1.2320    0.0000   -0.6353 C   0  0  0  0  0  0  0  0  0  0  0  0
    2.4640    0.0000    0.0000 C   0  0  0  0  0  0  0  0  0  0  0  0
    2.4640    0.0000    1.3782 C   0  0  0  0  0  0  0  0  0  0  0  0
    1.2803    0.0483   -1.9729 F   0  0  0  0  0  0  0  0  0  0  0  0
    1.2535   -0.0539    3.5877 C   0  0  0  0  0  0  0  0  0  0  0  0
    1.6025   -1.7486    4.1989 S   0  0  0  0  0  0  0  0  0  0  0  0
    0.0042   -2.3932    4.0164 C   0  0  0  0  0  0  0  0  0  0  0  0
   -1.0659   -1.7339    3.7085 N   0  0  0  0  0  0  0  0  0  0  0  0
   -0.2946   -3.7275    4.1888 N   0  0  0  0  0  0  0  0  0  0  0  0
   -2.1267   -2.5765    3.7132 N   0  0  0  0  0  0  0  0  0  0  0  0
   -1.6675   -3.7589    3.9995 C   0  0  0  0  0  0  0  0  0  0  0  0
   -2.6803   -5.0444    3.9977 S   0  0  0  0  0  0  0  0  0  0  0  0
    0.6529   -4.7365    4.5336 C   0  0  0  0  0  0  0  0  0  0  0  0
    0.2908   -5.8391    5.4869 C   0  0  0  0  0  0  0  0  0  0  0  0
    0.5166   -6.1278    4.0216 C   0  0  0  0  0  0  0  0  0  0  0  0
  1  2  2  0
  1  4  1  0
  2  3  1  0
  3  6  2  0
  3  8  1  0
  4  5  2  0
  4  7  1  0
  5  6  1  0
  8  9  1  0
  9 10  1  0
 10 11  2  0
 10 12  1  0
 11 13  1  0
 12 14  1  0
 12 16  1  0
 13 14  2  0
 14 15  1  0
 16 17  1  0
 16 18  1  0
 17 18  1  0
M  END

$$$$

     RDKit          3D

 25 27  0  0  0  0  0  0  0  0999 V2000
    0.0000    0.0000    0.0000 C   0  0  0  0  0  0  0  0  0  0  0  0
    0.0000    0.0000    1.3862 C   0  0  0  0  0  0  0  0  0  0  0  0
    1.1928    0.0000    2.0924 C   0  0  0  0  0  0  0  0  0  0  0  0
    1.1652    0.0000   -0.7508 C   0  0  0  0  0  0  0  0  0  0  0  0
    2.3780   -0.0596   -0.0498 C   0  0  0  0  0  0  0  0  0  0  0  0
    2.3773   -0.1155    1.3432 C   0  0  0  0  0  0  0  0  0  0  0  0
    1.1113    0.0539   -2.2422 C   0  0  0  0  0  0  0  0  0  0  0  0
    3.6695   -0.0081   -0.8146 C   0  0  0  0  0  0  0  0  0  0  0  0
    1.2469   -0.0542    3.5922 C   0  0  0  0  0  0  0  0  0  0  0  0
    4.0025    1.4022   -1.2707 C   0  0  0  0  0  0  0  0  0  0  0  0
    4.3150    1.6940   -2.4007 O   0  0  0  0  0  0  0  0  0  0  0  0
    3.8776    2.3706   -0.2756 N   0  0  0  0  0  0  0  0  0  0  0  0
    4.0295    3.7165   -0.3040 C   0  0  0  0  0  0  0  0  0  0  0  0
    4.4863    4.4496   -1.3577 C   0  0  0  0  0  0  0  0  0  0  0  0
    4.4694    5.7707   -0.7577 C   0  0  0  0  0  0  0  0  0  0  0  0
    4.8502    6.7548   -1.3318 O   0  0  0  0  0  0  0  0  0  0  0  0
    3.6521    4.5073    0.9264 C   0  0  0  0  0  0  0  0  0  0  0  0
    3.2203    4.0200    1.9442 O   0  0  0  0  0  0  0  0  0  0  0  0
    5.0939    4.0609   -2.9117 Cl  0  0  0  0  0  0  0  0  0  0  0  0
    3.8470    5.8372    0.6219 N   0  0  0  0  0  0  0  0  0  0  0  0
    3.5765    6.9440    1.4391 C   0  0  0  0  0  0  0  0  0  0  0  0
    2.8108    8.0445    1.0019 C   0  0  0  0  0  0  0  0  0  0  0  0
    4.0526    7.0479    2.7116 C   0  0  0  0  0  0  0  0  0  0  0  0
    3.6015    8.5436    3.4148 S   0  0  0  0  0  0  0  0  0  0  0  0
    2.7394    9.0131    1.9686 C   0  0  0  0  0  0  0  0  0  0  0  0
  1  2  2  0
  1  4  1  0
  2  3  1  0
  3  6  2  0
  3  9  1  0
  4  5  2  0
  4  7  1  0
  5  6  1  0
  5  8  1  0
  8 10  1  0
 10 11  2  0
 10 12  1  0
 12 13  1  0
 13 14  2  0
 13 17  1  0
 14 15  1  0
 14 19  1  0
 15 16  2  0
 15 20  1  0
 17 18  2  0
 17 20  1  0
 20 21  1  0
 21 22  1  0
 21 23  2  0
 22 25  2  0
 23 24  1  0
 24 25  1  0
M  END

$$$$

     RDKit          3D

 28 30  0  0  0  0  0  0  0  0999 V2000
    0.0000    0.0000    0.0000 C   0  0  0  0  0  0  0  0  0  0  0  0
    0.0000    0.0000    1.3941 C   0  0  0  0  0  0  0  0  0  0  0  0
    1.2111    0.0000    2.0845 C   0  0  0  0  0  0  0  0  0  0  0  0
    1.1990    0.0589   -0.6931 C   0  0  0  0  0  0  0  0  0  0  0  0
    2.4005    0.1772    0.0040 C   0  0  0  0  0  0  0  0  0  0  0  0
    2.4005    0.1772    1.3901 C   0  0  0  0  0  0  0  0  0  0  0  0
   -1.2409    0.0000    2.1938 C   0  0  0  0  0  0  0  0  0  0  0  0
   -1.2888   -0.4244    3.3313 O   0  0  0  0  0  0  0  0  0  0  0  0
    1.2465    0.1113   -2.0774 N   0  0  0  0  0  0  0  0  0  0  0  0
   -2.3791    0.4715    1.5584 N   0  0  0  0  0  0  0  0  0  0  0  0
    0.3366   -0.3273   -3.0035 C   0  0  0  0  0  0  0  0  0  0  0  0
   -0.6243   -1.0083   -2.6520 O   0  0  0  0  0  0  0  0  0  0  0  0
   -3.5868    0.4709    2.1724 C   0  0  0  0  0  0  0  0  0  0  0  0
   -4.6587    0.9408    1.6377 N   0  0  0  0  0  0  0  0  0  0  0  0
   -3.7014   -0.2135    3.7821 S   0  0  0  0  0  0  0  0  0  0  0  0
   -5.7175    0.7774    2.4159 N   0  0  0  0  0  0  0  0  0  0  0  0
   -5.3785    0.2121    3.5006 C   0  0  0  0  0  0  0  0  0  0  0  0
    0.5338   -0.0122   -4.4323 C   0  0  0  0  0  0  0  0  0  0  0  0
    1.4084    1.0109   -4.8251 C   0  0  0  0  0  0  0  0  0  0  0  0
   -0.1577   -0.7226   -5.4351 C   0  0  0  0  0  0  0  0  0  0  0  0
    1.5975    1.2361   -6.1716 C   0  0  0  0  0  0  0  0  0  0  0  0
    0.0330   -0.4949   -6.7972 C   0  0  0  0  0  0  0  0  0  0  0  0
    0.9750    0.5118   -7.1762 C   0  0  0  0  0  0  0  0  0  0  0  0
   -6.3764   -0.1280    4.5460 C   0  0  0  0  0  0  0  0  0  0  0  0
   -1.0355   -1.6466   -5.0759 O   0  0  0  0  0  0  0  0  0  0  0  0
   -5.9215    0.2324    5.9688 C   0  0  0  0  0  0  0  0  0  0  0  0
   -4.7156   -0.4502    6.2303 O   0  0  0  0  0  0  0  0  0  0  0  0
   -4.1683   -0.1581    7.4877 C   0  0  0  0  0  0  0  0  0  0  0  0
  1  2  2  0
  1  4  1  0
  2  3  1  0
  2  7  1  0
  3  6  2  0
  4  5  2  0
  4  9  1  0
  5  6  1  0
  7  8  2  0
  7 10  1  0
  9 11  1  0
 10 13  1  0
 11 12  2  0
 11 18  1  0
 13 14  2  0
 13 15  1  0
 14 16  1  0
 15 17  1  0
 16 17  2  0
 17 24  1  0
 18 19  2  0
 18 20  1  0
 19 21  1  0
 20 22  2  0
 20 25  1  0
 21 23  2  0
 22 23  1  0
 24 26  1  0
 26 27  1  0
 27 28  1  0
M  END

$$$$

     RDKit          3D

 31 34  0  0  0  0  0  0  0  0999 V2000
    0.0000    0.0000    0.0000 C   0  0  0  0  0  0  0  0  0  0  0  0
    0.0000    0.0000    1.3941 C   0  0  0  0  0  0  0  0  0  0  0  0
    1.2084    0.0000    2.1366 C   0  0  0  0  0  0  0  0  0  0  0  0
    1.2250    0.0000   -0.6317 C   0  0  0  0  0  0  0  0  0  0  0  0
    2.4378   -0.0596    0.0694 C   0  0  0  0  0  0  0  0  0  0  0  0
    2.4370   -0.1211    1.4384 C   0  0  0  0  0  0  0  0  0  0  0  0
   -1.1117    0.0546    2.1935 N   0  0  0  0  0  0  0  0  0  0  0  0
   -0.7689    0.0918    3.5117 C   0  0  0  0  0  0  0  0  0  0  0  0
    0.6287    0.0074    3.5864 C   0  0  0  0  0  0  0  0  0  0  0  0
    1.2690   -0.0324    4.9066 C   0  0  0  0  0  0  0  0  0  0  0  0
    0.6283    0.3627    5.8694 O   0  0  0  0  0  0  0  0  0  0  0  0
    1.3555    0.0541   -2.0106 O   0  0  0  0  0  0  0  0  0  0  0  0
    0.5263    0.8232   -2.7565 C   0  0  0  0  0  0  0  0  0  0  0  0
   -0.3615    1.4940   -2.2512 O   0  0  0  0  0  0  0  0  0  0  0  0
    2.6655   -0.5682    5.0417 C   0  0  0  0  0  0  0  0  0  0  0  0
   -1.7655    0.0950    4.5893 C   0  0  0  0  0  0  0  0  0  0  0  0
   -1.5284   -0.4842    5.6554 O   0  0  0  0  0  0  0  0  0  0  0  0
   -2.9669    0.7300    4.4117 N   0  0  0  0  0  0  0  0  0  0  0  0
   -4.1308    0.2197    5.0948 C   0  0  0  0  0  0  0  0  0  0  0  0
   -3.2176    1.6615    3.3721 C   0  0  0  0  0  0  0  0  0  0  0  0
   -2.3946    2.7542    3.0642 C   0  0  0  0  0  0  0  0  0  0  0  0
   -4.4176    1.5422    2.6725 C   0  0  0  0  0  0  0  0  0  0  0  0
   -2.7090    3.6726    2.0636 C   0  0  0  0  0  0  0  0  0  0  0  0
   -4.7302    2.4654    1.6756 C   0  0  0  0  0  0  0  0  0  0  0  0
   -3.9294    3.5036    1.3943 C   0  0  0  0  0  0  0  0  0  0  0  0
   -5.3722    0.5926    2.8219 O   0  0  0  0  0  0  0  0  0  0  0  0
   -1.2100    3.0366    3.9869 C   0  0  0  0  0  0  0  0  0  0  0  0
   -2.2309    3.5231    5.0142 C   0  0  0  0  0  0  0  0  0  0  0  0
   -2.4552    4.6798    5.2816 O   0  0  0  0  0  0  0  0  0  0  0  0
   -5.0907   -0.2529    4.0040 C   0  0  0  0  0  0  0  0  0  0  0  0
   -1.8988    4.8375    1.5985 C   0  0  0  0  0  0  0  0  0  0  0  0
  1  2  2  0
  1  4  1  0
  2  3  1  0
  2  7  1  0
  3  6  2  0
  3  9  1  0
  4  5  2  0
  4 12  1  0
  5  6  1  0
  7  8  1  0
  8  9  1  0
  8 16  1  0
  9 10  1  0
 10 11  2  0
 10 15  1  0
 12 13  1  0
 13 14  2  0
 16 17  2  0
 16 18  1  0
 18 19  1  0
 18 20  1  0
 19 30  1  0
 20 21  1  0
 20 22  2  0
 21 23  2  0
 21 27  1  0
 22 24  1  0
 22 26  1  0
 23 25  1  0
 23 31  1  0
 24 25  2  0
 26 30  1  0
 27 28  1  0
 28 29  2  0
M  END

$$$$

     RDKit          3D

 30 32  0  0  0  0  0  0  0  0999 V2000
    0.0000    0.0000    0.0000 C   0  0  0  0  0  0  0  0  0  0  0  0
    0.0000    0.0000    1.3782 C   0  0  0  0  0  0  0  0  0  0  0  0
    1.1810    0.0000    2.1040 C   0  0  0  0  0  0  0  0  0  0  0  0
    1.2391    0.0000   -0.6390 C   0  0  0  0  0  0  0  0  0  0  0  0
    2.4177    0.0000    0.1205 C   0  0  0  0  0  0  0  0  0  0  0  0
    2.2829    0.0000    1.5161 C   0  0  0  0  0  0  0  0  0  0  0  0
    3.7601   -0.0536   -0.5115 C   0  0  0  0  0  0  0  0  0  0  0  0
    3.8726    0.1157   -1.7380 O   0  0  0  0  0  0  0  0  0  0  0  0
    3.5510    0.0533    2.2700 C   0  0  0  0  0  0  0  0  0  0  0  0
    3.4749    0.2373    3.4900 O   0  0  0  0  0  0  0  0  0  0  0  0
    1.2917    0.0526   -2.0965 C   0  0  0  0  0  0  0  0  0  0  0  0
    2.4886   -0.1468   -2.6635 C   0  0  0  0  0  0  0  0  0  0  0  0
    4.9917   -0.2698    0.2248 C   0  0  0  0  0  0  0  0  0  0  0  0
    6.2376   -0.2010   -0.2826 C   0  0  0  0  0  0  0  0  0  0  0  0
    0.1342    0.3058   -2.9913 C   0  0  0  0  0  0  0  0  0  0  0  0
    7.5035   -0.4423    0.3098 C   0  0  0  0  0  0  0  0  0  0  0  0
    8.7981   -0.3377   -0.1513 C   0  0  0  0  0  0  0  0  0  0  0  0
    7.5063   -0.9191    2.0071 S   0  0  0  0  0  0  0  0  0  0  0  0
    9.8059   -0.5964    0.6921 N   0  0  0  0  0  0  0  0  0  0  0  0
    9.2375   -0.8757    1.7353 C   0  0  0  0  0  0  0  0  0  0  0  0
    9.9598   -1.1437    2.8308 N   0  0  0  0  0  0  0  0  0  0  0  0
    9.6240   -1.7182    4.1297 C   0  0  0  0  0  0  0  0  0  0  0  0
   10.4587   -1.0976    5.2488 C   0  0  0  0  0  0  0  0  0  0  0  0
   11.3742   -1.1468    2.5455 C   0  0  0  0  0  0  0  0  0  0  0  0
    9.7487   -3.2256    3.9883 C   0  0  0  0  0  0  0  0  0  0  0  0
   11.0247   -3.7880    4.1351 C   0  0  0  0  0  0  0  0  0  0  0  0
    8.6701   -4.0574    3.7308 C   0  0  0  0  0  0  0  0  0  0  0  0
   11.2141   -5.1545    3.8848 C   0  0  0  0  0  0  0  0  0  0  0  0
    8.8556   -5.4006    3.4843 C   0  0  0  0  0  0  0  0  0  0  0  0
   10.1176   -5.9734    3.5448 C   0  0  0  0  0  0  0  0  0  0  0  0
  1  2  2  0
  1  4  1  0
  2  3  2  0
  3  6  2  0
  4  5  1  0
  4 11  1  0
  5  6  1  0
  5  7  1  0
  6  9  1  0
  7  8  2  0
  7 13  1  0
  9 10  2  0
 11 12  2  0
 11 15  1  0
 13 14  2  3
 14 16  1  0
 16 17  2  0
 16 18  1  0
 17 19  1  0
 18 20  1  0
 19 20  2  0
 20 21  1  0
 21 22  1  0
 21 24  1  0
 22 23  1  0
 22 25  1  0
 25 26  2  0
 25 27  1  0
 26 28  1  0
 27 29  2  0
 28 30  2  0
 29 30  1  0
M  END

$$$$
