
     RDKit          3D

 27 29  0  0  0  0  0  0  0  0999 V2000
    0.0000   -0.0000    0.0000 C   0  0  0  0  0  0  0  0  0  0  0  0
    0.0000    0.0000    1.3862 C   0  0  0  0  0  0  0  0  0  0  0  0
    1.2154   -0.0000    2.0527 C   0  0  0  0  0  0  0  0  0  0  0  0
    1.1990    0.0589   -0.6931 C   0  0  0  0  0  0  0  0  0  0  0  0
    2.3994    0.0589   -0.0000 C   0  0  0  0  0  0  0  0  0  0  0  0
    2.4023   -0.0587    1.3812 C   0  0  0  0  0  0  0  0  0  0  0  0
   -1.3065    0.0642    2.1414 C   0  0  0  0  0  0  0  0  0  0  0  0
   -1.2964   -0.8336    3.2603 N   0  0  0  0  0  0  0  0  0  0  0  0
   -1.3189   -0.3918    4.5003 N   0  0  0  0  0  0  0  0  0  0  0  0
   -1.2621   -2.2025    3.2075 C   0  0  0  0  0  0  0  0  0  0  0  0
   -1.2501   -1.4382    5.2838 C   0  0  0  0  0  0  0  0  0  0  0  0
   -1.2112   -2.6334    4.5157 C   0  0  0  0  0  0  0  0  0  0  0  0
   -1.2963   -1.4605    6.6298 O   0  0  0  0  0  0  0  0  0  0  0  0
   -1.2981   -2.9845    1.9459 C   0  0  0  0  0  0  0  0  0  0  0  0
   -0.8183   -0.3229    7.2437 C   0  0  0  0  0  0  0  0  0  0  0  0
   -0.2211    0.6175    6.7760 O   0  0  0  0  0  0  0  0  0  0  0  0
   -1.0933   -0.4927    8.5514 N   0  0  0  0  0  0  0  0  0  0  0  0
   -0.5297    0.5218    9.4225 C   0  0  2  0  0  0  0  0  0  0  0  0
    0.9308    0.2219    9.7563 C   0  0  0  0  0  0  0  0  0  0  0  0
    1.4913    1.3443   10.6282 C   0  0  0  0  0  0  0  0  0  0  0  0
   -1.3389    0.4731   10.7279 C   0  0  0  0  0  0  0  0  0  0  0  0
    0.6871    1.4626   11.9219 C   0  0  1  0  0  0  0  0  0  0  0  0
    1.2481    2.6232   12.7256 C   0  0  0  0  0  0  0  0  0  0  0  0
    1.8912    3.5579   12.3306 O   0  0  0  0  0  0  0  0  0  0  0  0
   -0.8827    1.6118   11.6240 C   0  0  0  0  0  0  0  0  0  0  0  0
    0.9181    2.4711   14.0068 O   0  0  0  0  0  0  0  0  0  0  0  0
    1.3111    3.5014   14.9245 C   0  0  0  0  0  0  0  0  0  0  0  0
  2  1  2  0
  3  2  1  0
  4  1  1  0
  5  4  2  0
  6  5  1  0
  6  3  2  0
  7  2  1  0
  8  7  1  0
  9  8  1  0
 10  8  1  0
 11  9  2  0
 12 11  1  0
 12 10  2  0
 13 11  1  0
 14 10  1  0
 15 13  1  0
 16 15  2  0
 17 15  1  0
 18 17  1  6
 19 18  1  0
 20 19  1  0
 21 18  1  0
 22 20  1  0
 22 23  1  6
 24 23  2  0
 25 21  1  0
 25 22  1  0
 26 23  1  0
 27 26  1  0
M  END
>  <SMILES>  (1) 
COC(=O)C1CCC(NC(=O)Oc2cc(C)n(Cc3ccccc3)n2)CC1

>  <scaffold>  (1) 
benzene

$$$$

     RDKit          3D

 32 33  0  0  0  0  0  0  0  0999 V2000
    0.0000   -0.0000   -0.0000 C   0  0  0  0  0  0  0  0  0  0  0  0
    0.0000    0.0000    1.4021 C   0  0  0  0  0  0  0  0  0  0  0  0
    1.2403   -0.0000    2.0561 C   0  0  0  0  0  0  0  0  0  0  0  0
    1.1922   -0.0586   -0.6891 C   0  0  0  0  0  0  0  0  0  0  0  0
    2.4227   -0.1190   -0.0538 C   0  0  0  0  0  0  0  0  0  0  0  0
    2.4248   -0.0601    1.3311 C   0  0  0  0  0  0  0  0  0  0  0  0
   -1.1652   -0.0000    2.1530 N   0  0  0  0  0  0  0  0  0  0  0  0
    3.6061   -0.2278   -0.7977 N   0  0  0  0  0  0  0  0  0  0  0  0
   -2.4626    0.1925    1.5518 C   0  0  0  0  0  0  0  0  0  0  0  0
   -3.0690   -1.1285    1.0808 C   0  0  0  0  0  0  0  0  0  0  0  0
    4.8983   -0.1480   -0.3986 C   0  0  0  0  0  0  0  0  0  0  0  0
    5.2725   -0.0141    0.7497 O   0  0  0  0  0  0  0  0  0  0  0  0
    5.8317   -0.2607   -1.5039 C   0  0  0  0  0  0  0  0  0  0  0  0
    7.2133   -0.1649   -1.4438 C   0  0  0  0  0  0  0  0  0  0  0  0
    5.4085   -0.4803   -2.7720 O   0  0  0  0  0  0  0  0  0  0  0  0
    7.6088   -0.2909   -2.7747 C   0  0  0  0  0  0  0  0  0  0  0  0
    6.4881   -0.4809   -3.5516 C   0  0  0  0  0  0  0  0  0  0  0  0
    6.3201   -0.7583   -4.9918 C   0  0  0  0  0  0  0  0  0  0  0  0
    7.2235   -0.7371   -5.7936 O   0  0  0  0  0  0  0  0  0  0  0  0
    5.0652   -0.9776   -5.3240 O   0  0  0  0  0  0  0  0  0  0  0  0
    4.7643   -1.2035   -6.6999 C   0  0  0  0  0  0  0  0  0  0  0  0
    4.6682    0.1176   -7.4612 C   0  0  0  0  0  0  0  0  0  0  0  0
    3.5186    0.9885   -6.9568 C   0  0  0  0  0  0  0  0  0  0  0  0
    3.4131    2.3461   -7.6498 C   0  0  0  0  0  0  0  0  0  0  0  0
    2.2173    3.1543   -7.1486 C   0  0  0  0  0  0  0  0  0  0  0  0
    2.0992    4.5362   -7.7683 C   0  0  0  0  0  0  0  0  0  0  0  0
    0.8450    5.2892   -7.2698 C   0  0  1  0  0  0  0  0  0  0  0  0
    0.9011    5.5264   -5.8972 O   0  0  0  0  0  0  0  0  0  0  0  0
    0.6600    6.5595   -8.0823 C   0  0  0  0  0  0  0  0  0  0  0  0
    0.0788    6.6088   -9.1482 O   0  0  0  0  0  0  0  0  0  0  0  0
    1.2354    7.5866   -7.5099 O   0  0  0  0  0  0  0  0  0  0  0  0
    1.1793    8.8382   -8.2088 C   0  0  0  0  0  0  0  0  0  0  0  0
  2  1  1  0
  3  2  1  0
  4  1  2  0
  5  4  1  0
  6  5  1  0
  6  3  2  0
  7  2  2  3
  8  5  2  0
  9  7  1  0
 10  9  1  0
 11  8  1  0
 12 11  1  0
 13 11  2  0
 14 13  1  0
 15 13  1  0
 16 14  2  0
 17 15  1  0
 17 16  1  0
 18 17  2  0
 19 18  1  0
 20 18  1  0
 21 20  1  0
 22 21  1  0
 23 22  1  0
 24 23  1  0
 25 24  1  0
 26 25  1  0
 27 26  1  0
 27 28  1  1
 29 27  1  0
 30 29  2  0
 31 29  1  0
 32 31  2  0
M  CHG  4   8   1  12  -1  19  -1  31   1
M  END
>  <SMILES>  (2) 
C=[O+]C(=O)C(O)CCCCCCOC([O-])=c1ccc(=C([O-])[NH+]=C2C=CC(=NCC)C=C2)o1

>  <scaffold>  (2) 
benzene

$$$$

     RDKit          3D

 27 28  0  0  0  0  0  0  0  0999 V2000
   -0.0000    0.0000   -0.0000 C   0  0  0  0  0  0  0  0  0  0  0  0
   -0.0000   -0.0000    1.3941 C   0  0  0  0  0  0  0  0  0  0  0  0
    1.1974    0.0000    2.0767 C   0  0  0  0  0  0  0  0  0  0  0  0
    1.1652   -0.0000   -0.7508 C   0  0  0  0  0  0  0  0  0  0  0  0
    2.3371    0.0000    0.0043 C   0  0  0  0  0  0  0  0  0  0  0  0
    2.3371    0.0000    1.3984 C   0  0  0  0  0  0  0  0  0  0  0  0
    3.5740    0.0544   -0.6365 N   0  0  0  0  0  0  0  0  0  0  0  0
    3.9451    0.1130   -1.9462 C   0  0  0  0  0  0  0  0  0  0  0  0
    3.1001    0.1250   -2.8096 O   0  0  0  0  0  0  0  0  0  0  0  0
   -1.2110    0.0000   -0.6245 O   0  0  0  0  0  0  0  0  0  0  0  0
   -1.3423    0.0544   -2.0114 C   0  0  0  0  0  0  0  0  0  0  0  0
    5.4298    0.2186   -2.2037 C   0  0  0  0  0  0  0  0  0  0  0  0
   -0.7888    1.3810   -2.5290 C   0  0  0  0  0  0  0  0  0  0  0  0
   -0.3533    2.2689   -1.8229 O   0  0  0  0  0  0  0  0  0  0  0  0
   -0.8146    1.5275   -3.8756 N   0  0  0  0  0  0  0  0  0  0  0  0
   -1.1742    0.7212   -4.9546 C   0  0  0  0  0  0  0  0  0  0  0  0
   -1.8925   -0.3674   -4.7262 N   0  0  0  0  0  0  0  0  0  0  0  0
   -0.7513    1.0683   -6.2456 C   0  0  0  0  0  0  0  0  0  0  0  0
   -2.1706   -1.1278   -5.7739 C   0  0  0  0  0  0  0  0  0  0  0  0
   -1.0405    0.2758   -7.3355 C   0  0  0  0  0  0  0  0  0  0  0  0
   -1.7815   -0.8891   -7.0743 C   0  0  0  0  0  0  0  0  0  0  0  0
   -2.1319   -1.9798   -8.4277 S   0  0  0  0  0  6  0  0  0  0  0  0
   -1.9273   -1.3459   -9.7076 O   0  0  0  0  0  0  0  0  0  0  0  0
   -3.3825   -2.5943   -8.1631 O   0  0  0  0  0  0  0  0  0  0  0  0
   -0.9848   -3.1837   -8.2315 N   0  0  0  0  0  0  0  0  0  0  0  0
   -1.3673   -4.4835   -7.7857 C   0  0  0  0  0  0  0  0  0  0  0  0
   -0.4314   -5.1997   -6.8549 C   0  0  0  0  0  0  0  0  0  0  0  0
  2  1  2  0
  3  2  1  0
  4  1  1  0
  5  4  2  0
  6  5  1  0
  6  3  2  0
  7  5  1  0
  8  7  1  0
  9  8  2  0
 10  1  1  0
 11 10  1  0
 12  8  1  0
 13 11  1  0
 14 13  2  0
 15 13  1  0
 16 15  1  0
 17 16  2  0
 18 16  1  0
 19 17  1  0
 20 18  2  0
 21 20  1  0
 21 19  2  0
 22 21  1  0
 23 22  2  0
 24 22  2  0
 25 22  1  0
 26 25  1  0
 27 26  1  0
M  END
>  <SMILES>  (3) 
CCNS(=O)(=O)c1ccc(NC(=O)COc2cccc(NC(C)=O)c2)nc1

>  <scaffold>  (3) 
benzene

$$$$

     RDKit          3D

 23 25  0  0  0  0  0  0  0  0999 V2000
   -0.0000    0.0000    0.0000 C   0  0  0  0  0  0  0  0  0  0  0  0
    0.0000    0.0000    1.3625 C   0  0  0  0  0  0  0  0  0  0  0  0
    1.2134   -0.0000    2.0810 C   0  0  0  0  0  0  0  0  0  0  0  0
    1.2128    0.0596   -0.7011 C   0  0  0  0  0  0  0  0  0  0  0  0
    2.4293    0.1193   -0.0730 C   0  0  0  0  0  0  0  0  0  0  0  0
    2.4965    0.1226    1.3437 C   0  0  0  0  0  0  0  0  0  0  0  0
    3.6906    0.1259    2.1091 C   0  0  0  0  0  0  0  0  0  0  0  0
    3.7059    0.1782    3.4705 C   0  0  0  0  0  0  0  0  0  0  0  0
    2.4929    0.2320    4.1718 C   0  0  0  0  0  0  0  0  0  0  0  0
    1.2921    0.1738    3.4979 C   0  0  0  0  0  0  0  0  0  0  0  0
    3.6563    0.2300   -0.7256 O   0  0  0  0  0  0  0  0  0  0  0  0
    3.6590    0.0385   -2.1308 C   0  0  0  0  0  0  0  0  0  0  0  0
    0.1463    0.1805    4.2207 F   0  0  0  0  0  0  0  0  0  0  0  0
    5.1257   -0.0591   -2.5474 C   0  0  2  0  0  0  0  0  0  0  0  0
    5.8354    1.1086   -2.2335 O   0  0  0  0  0  0  0  0  0  0  0  0
    5.2708   -0.3273   -4.0446 C   0  0  0  0  0  0  0  0  0  0  0  0
    4.7175   -1.5725   -4.4079 O   0  0  0  0  0  0  0  0  0  0  0  0
    5.3632   -2.7268   -4.0806 C   0  0  0  0  0  0  0  0  0  0  0  0
    6.6805   -2.7790   -3.6787 C   0  0  0  0  0  0  0  0  0  0  0  0
    4.6386   -3.9289   -4.2166 C   0  0  0  0  0  0  0  0  0  0  0  0
    7.2440   -4.0282   -3.4223 C   0  0  0  0  0  0  0  0  0  0  0  0
    5.2058   -5.1774   -3.9652 C   0  0  0  0  0  0  0  0  0  0  0  0
    6.5801   -5.2120   -3.5417 C   0  0  0  0  0  0  0  0  0  0  0  0
  2  1  2  0
  3  2  1  0
  4  1  1  0
  5  4  2  0
  6  5  1  0
  6  3  2  0
  7  6  1  0
  8  7  2  0
  9  8  1  0
 10  9  2  0
 10  3  1  0
 11  5  1  0
 12 11  1  0
 13 10  1  0
 14 12  1  0
 14 15  1  6
 16 14  1  0
 17 16  1  0
 18 17  1  0
 19 18  2  0
 20 18  1  0
 21 19  1  0
 22 20  2  0
 23 22  1  0
 23 21  2  0
M  END
>  <SMILES>  (4) 
OC(COc1ccccc1)COc1cccc2c(F)cccc12

>  <scaffold>  (4) 
benzene

$$$$

     RDKit          3D

 21 22  0  0  0  0  0  0  0  0999 V2000
    0.0000    0.0000    0.0000 C   0  0  0  0  0  0  0  0  0  0  0  0
   -0.0000   -0.0000    1.3862 C   0  0  0  0  0  0  0  0  0  0  0  0
    1.2437   -0.0000    2.0160 C   0  0  0  0  0  0  0  0  0  0  0  0
    1.1652    0.0000   -0.7508 C   0  0  0  0  0  0  0  0  0  0  0  0
    2.3972   -0.0000   -0.1155 C   0  0  0  0  0  0  0  0  0  0  0  0
    2.3972   -0.0000    1.2786 C   0  0  0  0  0  0  0  0  0  0  0  0
   -1.0991   -0.0540    2.1764 O   0  0  0  0  0  0  0  0  0  0  0  0
    3.5923   -0.0525   -0.7347 O   0  0  0  0  0  0  0  0  0  0  0  0
   -2.3744   -0.3735    1.6446 C   0  0  0  0  0  0  0  0  0  0  0  0
   -2.4945   -1.8492    1.2677 C   0  0  0  0  0  0  0  0  0  0  0  0
    3.7215   -0.1154   -2.1457 C   0  0  0  0  0  0  0  0  0  0  0  0
    5.1877   -0.2258   -2.5609 C   0  0  0  0  0  0  0  0  0  0  0  0
    5.8273   -1.5201   -2.0608 C   0  0  0  0  0  0  0  0  0  0  0  0
    7.2780   -1.5556   -2.4477 C   0  0  0  0  0  0  0  0  0  0  0  0
    7.7108   -2.0854   -3.6624 C   0  0  0  0  0  0  0  0  0  0  0  0
    8.2661   -1.0281   -1.6446 C   0  0  0  0  0  0  0  0  0  0  0  0
    9.0238   -2.0947   -4.0813 C   0  0  0  0  0  0  0  0  0  0  0  0
    9.5864   -1.0400   -2.0668 C   0  0  0  0  0  0  0  0  0  0  0  0
    9.9918   -1.5411   -3.2445 C   0  0  0  0  0  0  0  0  0  0  0  0
   11.3101   -1.4836   -3.6425 N   0  0  0  0  0  0  0  0  0  0  0  0
   11.8336   -2.1358   -4.8182 C   0  0  0  0  0  0  0  0  0  0  0  0
  2  1  2  0
  3  2  1  0
  4  1  1  0
  5  4  2  0
  6  5  1  0
  6  3  2  0
  7  2  1  0
  8  5  1  0
  9  7  1  0
 10  9  1  0
 11  8  1  0
 12 11  1  0
 13 12  1  0
 14 13  1  0
 15 14  2  0
 16 14  1  0
 17 15  1  0
 18 16  2  0
 19 18  1  0
 19 17  2  0
 20 19  1  0
 21 20  1  0
M  END
>  <SMILES>  (5) 
CCOc1ccc(OCCCc2ccc(NC)cc2)cc1

>  <scaffold>  (5) 
benzene

$$$$

     RDKit          3D

 30 32  0  0  0  0  0  0  0  0999 V2000
    0.0000   -0.0000    0.0000 C   0  0  0  0  0  0  0  0  0  0  0  0
   -0.0000    0.0000    1.3862 C   0  0  0  0  0  0  0  0  0  0  0  0
    1.1974   -0.0000    2.0687 C   0  0  0  0  0  0  0  0  0  0  0  0
    1.1990   -0.0589   -0.6931 C   0  0  0  0  0  0  0  0  0  0  0  0
    2.3994   -0.0589   -0.0000 C   0  0  0  0  0  0  0  0  0  0  0  0
    2.4024    0.0608    1.4051 C   0  0  0  0  0  0  0  0  0  0  0  0
    3.5150    0.1262    2.1889 O   0  0  0  0  0  0  0  0  0  0  0  0
    3.6231   -0.2476   -0.6408 N   0  0  0  0  0  0  0  0  0  0  0  0
    3.8382   -0.6300   -1.9063 C   0  0  0  0  0  0  0  0  0  0  0  0
    3.0035   -0.8360   -2.7748 O   0  0  0  0  0  0  0  0  0  0  0  0
    5.3362   -0.7674   -2.1734 C   0  0  0  0  0  0  0  0  0  0  0  0
    6.1916   -0.5101   -1.3598 O   0  0  0  0  0  0  0  0  0  0  0  0
    5.5045   -1.2034   -3.4533 N   0  0  0  0  0  0  0  0  0  0  0  0
    6.7083   -1.4731   -3.9748 N   0  0  0  0  0  0  0  0  0  0  0  0
    6.7498   -1.8271   -5.1959 C   0  0  0  0  0  0  0  0  0  0  0  0
    8.0105   -2.1759   -5.7851 C   0  0  0  0  0  0  0  0  0  0  0  0
    8.1086   -2.5080   -7.0788 C   0  0  0  0  0  0  0  0  0  0  0  0
    9.3523   -2.8140   -7.7250 C   0  0  0  0  0  0  0  0  0  0  0  0
    9.6596   -3.1179   -9.0337 C   0  0  0  0  0  0  0  0  0  0  0  0
   10.4999   -2.7706   -7.0063 O   0  0  0  0  0  0  0  0  0  0  0  0
   11.0254   -3.3855   -9.1154 C   0  0  0  0  0  0  0  0  0  0  0  0
   11.4658   -3.1548   -7.8751 C   0  0  0  0  0  0  0  0  0  0  0  0
   13.0899   -3.1391   -7.2708 S   0  0  0  0  0  0  0  0  0  0  0  0
   13.7687   -3.9096   -8.7538 C   0  0  0  0  0  0  0  0  0  0  0  0
   13.4350   -5.1958   -9.1485 C   0  0  0  0  0  0  0  0  0  0  0  0
   14.7815   -3.2177   -9.3650 C   0  0  0  0  0  0  0  0  0  0  0  0
   14.0170   -5.7606  -10.2629 C   0  0  0  0  0  0  0  0  0  0  0  0
   15.3645   -3.7920  -10.4740 C   0  0  0  0  0  0  0  0  0  0  0  0
   14.9915   -5.0482  -10.9603 C   0  0  0  0  0  0  0  0  0  0  0  0
   15.7012   -5.8490  -12.5163 Br  0  0  0  0  0  0  0  0  0  0  0  0
  2  1  2  0
  3  2  1  0
  4  1  1  0
  5  4  2  0
  6  5  1  0
  6  3  2  0
  7  6  1  0
  8  5  1  0
  9  8  1  0
 10  9  2  0
 11  9  1  0
 12 11  2  0
 13 11  1  0
 14 13  1  0
 15 14  2  0
 16 15  1  0
 17 16  2  0
 18 17  1  0
 19 18  2  0
 20 18  1  0
 21 19  1  0
 22 21  2  0
 22 20  1  0
 23 22  1  0
 24 23  1  0
 25 24  2  0
 26 24  1  0
 27 25  1  0
 28 26  2  0
 29 27  2  0
 29 28  1  0
 30 29  1  0
M  END
>  <SMILES>  (6) 
O=C(NN=CC=Cc1ccc(Sc2ccc(Br)cc2)o1)C(=O)Nc1ccccc1O

>  <scaffold>  (6) 
benzene

$$$$

     RDKit          3D

 16 17  0  0  0  0  0  0  0  0999 V2000
    0.0000    0.0000    0.0000 C   0  0  0  0  0  0  0  0  0  0  0  0
    0.0000    0.0000    1.4021 C   0  0  0  0  0  0  0  0  0  0  0  0
    1.1860    0.0000    2.1043 C   0  0  0  0  0  0  0  0  0  0  0  0
    1.2320    0.0000   -0.6353 C   0  0  0  0  0  0  0  0  0  0  0  0
    2.4379    0.0592    0.0617 C   0  0  0  0  0  0  0  0  0  0  0  0
    2.3717    0.0609    1.4543 C   0  0  0  0  0  0  0  0  0  0  0  0
    3.7073    0.1191   -0.4509 O   0  0  0  0  0  0  0  0  0  0  0  0
   -1.2041    0.0000   -0.6209 O   0  0  0  0  0  0  0  0  0  0  0  0
   -1.2555    0.0515   -2.0455 C   0  0  0  0  0  0  0  0  0  0  0  0
    3.7764   -0.0019   -1.8381 C   0  0  0  0  0  0  0  0  0  0  0  0
    3.4018   -1.3350   -2.4195 C   0  0  0  0  0  0  0  0  0  0  0  0
    3.2914   -2.4622   -1.6340 C   0  0  0  0  0  0  0  0  0  0  0  0
    3.0693   -1.5957   -3.7564 C   0  0  0  0  0  0  0  0  0  0  0  0
    2.9115   -3.7930   -2.6934 S   0  0  0  0  0  0  0  0  0  0  0  0
    2.8090   -2.8784   -4.1060 C   0  0  0  0  0  0  0  0  0  0  0  0
    2.4911   -3.5146   -5.4093 C   0  0  0  0  0  0  0  0  0  0  0  0
  2  1  2  0
  3  2  1  0
  4  1  1  0
  5  4  2  0
  6  5  1  0
  6  3  2  0
  7  5  1  0
  8  1  1  0
  9  8  1  0
 10  7  1  0
 11 10  1  0
 12 11  2  0
 13 11  1  0
 14 12  1  0
 15 14  1  0
 15 13  2  0
 16 15  1  0
M  END
>  <SMILES>  (7) 
COc1cccc(OCc2csc(C)c2)c1

>  <scaffold>  (7) 
benzene

$$$$

     RDKit          3D

 30 32  0  0  0  0  0  0  0  0999 V2000
    0.0000    0.0000    0.0000 C   0  0  0  0  0  0  0  0  0  0  0  0
   -0.0000    0.0000    1.3862 C   0  0  0  0  0  0  0  0  0  0  0  0
    1.2042   -0.0000    2.0726 C   0  0  0  0  0  0  0  0  0  0  0  0
    1.1922    0.0586   -0.6891 C   0  0  0  0  0  0  0  0  0  0  0  0
    2.4297    0.1194   -0.0502 C   0  0  0  0  0  0  0  0  0  0  0  0
    2.4319    0.0605    1.3348 C   0  0  0  0  0  0  0  0  0  0  0  0
    3.5535    0.1207   -0.8481 O   0  0  0  0  0  0  0  0  0  0  0  0
    4.7888    0.3835   -0.2768 C   0  0  0  0  0  0  0  0  0  0  0  0
    5.2758   -0.6920    0.5092 O   0  0  0  0  0  0  0  0  0  0  0  0
    5.9307   -1.6653   -0.1839 C   0  0  0  0  0  0  0  0  0  0  0  0
    6.0654   -1.6850   -1.3843 O   0  0  0  0  0  0  0  0  0  0  0  0
    6.3866   -2.5954    0.6651 N   0  0  0  0  0  0  0  0  0  0  0  0
    7.0751   -3.7788    0.1841 C   0  0  1  0  0  0  0  0  0  0  0  0
    8.2738   -3.9910    1.0928 C   0  0  0  0  0  0  0  0  0  0  0  0
    6.1793   -4.9612    0.2481 C   0  0  0  0  0  0  0  0  0  0  0  0
    6.2031   -5.8458    1.1720 N   0  0  0  0  0  0  0  0  0  0  0  0
    4.8816   -5.1540   -0.9145 S   0  0  0  0  0  0  0  0  0  0  0  0
    5.2479   -6.7958    1.0282 C   0  0  0  0  0  0  0  0  0  0  0  0
    4.4268   -6.6075   -0.0669 C   0  0  0  0  0  0  0  0  0  0  0  0
    3.2288   -7.3883   -0.4969 C   0  0  0  0  0  0  0  0  0  0  0  0
    1.9676   -6.6165   -0.1118 C   0  0  0  0  0  0  0  0  0  0  0  0
    0.7169   -7.4677   -0.3252 C   0  0  0  0  0  0  0  0  0  0  0  0
   -0.5018   -6.6439    0.0174 C   0  0  0  0  0  0  0  0  0  0  0  0
   -1.0276   -6.6029    1.2908 C   0  0  0  0  0  0  0  0  0  0  0  0
   -1.0690   -5.8731   -0.9526 C   0  0  0  0  0  0  0  0  0  0  0  0
   -2.1181   -5.7934    1.5682 C   0  0  0  0  0  0  0  0  0  0  0  0
   -2.1580   -5.0626   -0.6724 C   0  0  0  0  0  0  0  0  0  0  0  0
   -2.7202   -5.0060    0.6105 C   0  0  0  0  0  0  0  0  0  0  0  0
   -3.8151   -4.2199    0.7465 O   0  0  0  0  0  0  0  0  0  0  0  0
   -4.4010   -4.1348    2.0353 C   0  0  0  0  0  0  0  0  0  0  0  0
  2  1  2  0
  3  2  1  0
  4  1  1  0
  5  4  2  0
  6  5  1  0
  6  3  2  0
  7  5  1  0
  8  7  1  0
  9  8  1  0
 10  9  1  0
 11 10  2  0
 12 10  1  0
 13 12  1  0
 13 14  1  1
 15 13  1  0
 16 15  2  0
 17 15  1  0
 18 16  1  0
 19 18  2  0
 19 17  1  0
 20 19  1  0
 21 20  1  0
 22 21  1  0
 23 22  1  0
 24 23  2  0
 25 23  1  0
 26 24  1  0
 27 25  2  0
 28 27  1  0
 28 26  2  0
 29 28  1  0
 30 29  1  0
M  END
>  <SMILES>  (8) 
COc1ccc(CCCc2cnc(C(C)NC(=O)OCOc3ccccc3)s2)cc1

>  <scaffold>  (8) 
benzene

$$$$

     RDKit          3D

 26 27  0  0  0  0  0  0  0  0999 V2000
    0.0000   -0.0000    0.0000 C   0  0  0  0  0  0  0  0  0  0  0  0
    0.0000    0.0000    1.3941 C   0  0  0  0  0  0  0  0  0  0  0  0
    1.2111   -0.0000    2.0845 C   0  0  0  0  0  0  0  0  0  0  0  0
    1.1922    0.0586   -0.6891 C   0  0  0  0  0  0  0  0  0  0  0  0
    2.3559    0.1157    0.0617 C   0  0  0  0  0  0  0  0  0  0  0  0
    2.4217    0.1190    1.4463 C   0  0  0  0  0  0  0  0  0  0  0  0
    3.5309    0.1234   -0.6738 O   0  0  0  0  0  0  0  0  0  0  0  0
    4.5173    0.9406   -0.2329 C   0  0  0  0  0  0  0  0  0  0  0  0
    4.4558    1.7920    0.6319 O   0  0  0  0  0  0  0  0  0  0  0  0
    5.5952    0.6840   -0.9854 N   0  0  0  0  0  0  0  0  0  0  0  0
   -1.4567   -0.0000    2.3328 S   0  0  0  0  0  0  0  0  0  0  0  0
   -2.8073   -0.0664    1.1233 C   0  0  0  0  0  0  0  0  0  0  0  0
    6.7659    1.5182   -0.8619 C   0  0  0  0  0  0  0  0  0  0  0  0
    6.8457    2.5234   -1.9866 C   0  0  0  0  0  0  0  0  0  0  0  0
    7.7028    2.3793   -3.0664 C   0  0  0  0  0  0  0  0  0  0  0  0
    6.0008    3.6122   -2.0024 C   0  0  0  0  0  0  0  0  0  0  0  0
    7.7053    3.2928   -4.0879 C   0  0  0  0  0  0  0  0  0  0  0  0
    6.0034    4.5334   -3.0381 C   0  0  0  0  0  0  0  0  0  0  0  0
    6.8555    4.3979   -4.0897 C   0  0  0  0  0  0  0  0  0  0  0  0
    6.9132    5.2065   -5.1849 O   0  0  0  0  0  0  0  0  0  0  0  0
    6.2214    6.4425   -5.2564 C   0  0  0  0  0  0  0  0  0  0  0  0
    6.9239    7.5160   -4.4268 C   0  0  0  0  0  0  0  0  0  0  0  0
    8.3206    7.8286   -4.9614 C   0  0  0  0  0  0  0  0  0  0  0  0
    9.0451    8.9364   -4.1984 C   0  0  0  0  0  0  0  0  0  0  0  0
   10.4124    9.2475   -4.8052 C   0  0  0  0  0  0  0  0  0  0  0  0
   11.2017   10.3121   -4.0450 C   0  0  0  0  0  0  0  0  0  0  0  0
  2  1  2  0
  3  2  1  0
  4  1  1  0
  5  4  2  0
  6  5  1  0
  6  3  2  0
  7  5  1  0
  8  7  1  0
  9  8  2  0
 10  8  1  0
 11  2  1  0
 12 11  1  0
 13 10  1  0
 14 13  1  0
 15 14  2  0
 16 14  1  0
 17 15  1  0
 18 16  2  0
 19 18  1  0
 19 17  2  0
 20 19  1  0
 21 20  1  0
 22 21  1  0
 23 22  1  0
 24 23  1  0
 25 24  1  0
 26 25  1  0
M  END
>  <SMILES>  (9) 
CCCCCCOc1ccc(CNC(=O)Oc2ccc(SC)cc2)cc1

>  <scaffold>  (9) 
benzene

$$$$

     RDKit          3D

 15 16  0  0  0  0  0  0  0  0999 V2000
    0.0000   -0.0000   -0.0000 C   0  0  0  0  0  0  0  0  0  0  0  0
   -0.0000   -0.0000    1.3941 C   0  0  0  0  0  0  0  0  0  0  0  0
    1.2042   -0.0000    2.0806 C   0  0  0  0  0  0  0  0  0  0  0  0
    1.2391   -0.0000   -0.6390 C   0  0  0  0  0  0  0  0  0  0  0  0
    2.4109   -0.0000    0.1162 C   0  0  0  0  0  0  0  0  0  0  0  0
    2.4109    0.0000    1.5103 C   0  0  0  0  0  0  0  0  0  0  0  0
    3.6642    0.0500   -0.4739 N   0  0  0  0  0  0  0  0  0  0  0  0
   -1.1652   -0.0000   -0.7508 N   0  0  0  0  0  0  0  0  0  0  0  0
    3.7888    0.0992   -1.7685 N   0  0  0  0  0  0  0  0  0  0  0  0
    4.9168    0.1919   -2.3491 C   0  0  0  0  0  0  0  0  0  0  0  0
    4.9156    0.2921   -3.7639 C   0  0  0  0  0  0  0  0  0  0  0  0
    5.9824    0.3472   -4.6222 C   0  0  0  0  0  0  0  0  0  0  0  0
    3.7733    0.3491   -4.4900 O   0  0  0  0  0  0  0  0  0  0  0  0
    5.4169    0.3865   -5.9223 C   0  0  0  0  0  0  0  0  0  0  0  0
    4.1086    0.3863   -5.7941 C   0  0  0  0  0  0  0  0  0  0  0  0
  2  1  2  0
  3  2  1  0
  4  1  1  0
  5  4  2  0
  6  5  1  0
  6  3  2  0
  7  5  1  0
  8  1  1  0
  9  7  1  0
 10  9  2  0
 11 10  1  0
 12 11  2  0
 13 11  1  0
 14 12  1  0
 15 13  1  0
 15 14  2  0
M  END
>  <SMILES>  (10) 
Nc1cccc(NN=Cc2ccco2)c1

>  <scaffold>  (10) 
benzene

$$$$

     RDKit          3D

 26 27  0  0  0  0  0  0  0  0999 V2000
    0.0000    0.0000   -0.0000 C   0  0  0  0  0  0  0  0  0  0  0  0
    0.0000   -0.0000    1.3862 C   0  0  0  0  0  0  0  0  0  0  0  0
    1.2042    0.0000    2.0726 C   0  0  0  0  0  0  0  0  0  0  0  0
    1.1652   -0.0000   -0.7508 C   0  0  0  0  0  0  0  0  0  0  0  0
    2.3711    0.0592   -0.0538 C   0  0  0  0  0  0  0  0  0  0  0  0
    2.3704    0.1152    1.3392 C   0  0  0  0  0  0  0  0  0  0  0  0
    3.5716    0.1181   -0.6788 O   0  0  0  0  0  0  0  0  0  0  0  0
    3.7059    0.0616   -2.0814 C   0  0  0  0  0  0  0  0  0  0  0  0
    5.1753    0.0894   -2.4992 C   0  0  0  0  0  0  0  0  0  0  0  0
    5.3783   -0.0255   -4.0180 C   0  0  0  0  0  0  0  0  0  0  0  0
    6.8294   -0.0473   -4.3698 C   0  0  0  0  0  0  0  0  0  0  0  0
    7.4475   -1.1674   -4.3642 N   0  0  0  0  0  0  0  0  0  0  0  0
    7.5377    1.2436   -4.5605 C   0  0  0  0  0  0  0  0  0  0  0  0
    8.7595   -1.2283   -4.6263 N   0  0  0  0  0  0  0  0  0  0  0  0
    9.3652   -2.4484   -4.6569 C   0  0  0  0  0  0  0  0  0  0  0  0
   10.6379   -2.4643   -4.9628 N   0  0  0  0  0  0  0  0  0  0  0  0
    8.6499   -3.6271   -4.3608 C   0  0  0  0  0  0  0  0  0  0  0  0
   11.2709   -3.6100   -4.9582 N   0  0  0  0  0  0  0  0  0  0  0  0
    9.3091   -4.8196   -4.3566 C   0  0  0  0  0  0  0  0  0  0  0  0
   10.7164   -4.7428   -4.6681 C   0  0  0  0  0  0  0  0  0  0  0  0
   11.4113   -5.8782   -4.6301 O   0  0  0  0  0  0  0  0  0  0  0  0
   12.7934   -5.8294   -4.9797 C   0  0  0  0  0  0  0  0  0  0  0  0
   13.0036   -5.7513   -6.4910 C   0  0  0  0  0  0  0  0  0  0  0  0
   12.4753   -7.0001   -7.1952 C   0  0  0  0  0  0  0  0  0  0  0  0
   12.7111   -6.9956   -8.7048 C   0  0  0  0  0  0  0  0  0  0  0  0
   12.2145   -8.2874   -9.3522 C   0  0  0  0  0  0  0  0  0  0  0  0
  2  1  2  0
  3  2  1  0
  4  1  1  0
  5  4  2  0
  6  5  1  0
  6  3  2  0
  7  5  1  0
  8  7  1  0
  9  8  1  0
 10  9  1  0
 11 10  1  0
 12 11  2  0
 13 11  1  0
 14 12  1  0
 15 14  1  0
 16 15  2  0
 17 15  1  0
 18 16  1  0
 19 17  2  0
 20 19  1  0
 20 18  2  0
 21 20  1  0
 22 21  1  0
 23 22  1  0
 24 23  1  0
 25 24  1  0
 26 25  1  0
M  END
>  <SMILES>  (11) 
CCCCCOc1ccc(NN=C(C)CCCOc2ccccc2)nn1

>  <scaffold>  (11) 
benzene

$$$$

     RDKit          3D

 27 29  0  0  0  0  0  0  0  0999 V2000
    0.0000   -0.0000   -0.0000 C   0  0  0  0  0  0  0  0  0  0  0  0
   -0.0000    0.0000    1.3862 C   0  0  0  0  0  0  0  0  0  0  0  0
    1.2042    0.0000    2.0726 C   0  0  0  0  0  0  0  0  0  0  0  0
    1.1990   -0.0589   -0.6931 C   0  0  0  0  0  0  0  0  0  0  0  0
    2.3628   -0.1161    0.0578 C   0  0  0  0  0  0  0  0  0  0  0  0
    2.4285   -0.1193    1.4423 C   0  0  0  0  0  0  0  0  0  0  0  0
    3.5668   -0.2267   -0.6991 N   0  0  0  0  0  0  0  0  0  0  0  0
    3.4995   -0.8488   -1.8574 N   0  0  0  0  0  0  0  0  0  0  0  0
    4.7704    0.3237   -0.1672 C   0  0  0  0  0  0  0  0  0  0  0  0
    4.4684   -0.9968   -2.6910 C   0  0  0  0  0  0  0  0  0  0  0  0
    4.8369    0.8864    0.8999 O   0  0  0  0  0  0  0  0  0  0  0  0
    5.8506    0.1607   -1.0971 C   0  0  0  0  0  0  0  0  0  0  0  0
    5.7339   -0.4314   -2.3208 C   0  0  0  0  0  0  0  0  0  0  0  0
    4.2419   -1.6768   -4.0010 C   0  0  0  0  0  0  0  0  0  0  0  0
    4.9982   -1.6959   -4.9342 O   0  0  0  0  0  0  0  0  0  0  0  0
    6.7240   -0.6508   -3.1957 F   0  0  0  0  0  0  0  0  0  0  0  0
    3.0324   -2.2305   -3.9383 O   0  0  0  0  0  0  0  0  0  0  0  0
    2.5412   -2.9862   -4.9810 C   0  0  0  0  0  0  0  0  0  0  0  0
    1.4742   -3.7914   -4.6142 C   0  0  0  0  0  0  0  0  0  0  0  0
    2.9218   -2.9961   -6.3138 C   0  0  0  0  0  0  0  0  0  0  0  0
    0.9246   -4.6440   -5.5705 C   0  0  0  0  0  0  0  0  0  0  0  0
    2.3793   -3.8529   -7.2705 C   0  0  0  0  0  0  0  0  0  0  0  0
    1.3812   -4.6551   -6.8709 C   0  0  0  0  0  0  0  0  0  0  0  0
    2.7051   -3.9930   -8.5861 O   0  0  0  0  0  0  0  0  0  0  0  0
    3.7421   -3.1329   -9.0026 C   0  0  0  0  0  0  0  0  0  0  0  0
   -0.0752   -5.4163   -5.0814 O   0  0  0  0  0  0  0  0  0  0  0  0
   -0.6257   -6.3265   -5.9949 C   0  0  0  0  0  0  0  0  0  0  0  0
  2  1  2  0
  3  2  1  0
  4  1  1  0
  5  4  2  0
  6  5  1  0
  6  3  2  0
  7  5  1  0
  8  7  1  0
  9  7  1  0
 10  8  2  0
 11  9  2  0
 12  9  1  0
 13 10  1  0
 13 12  2  0
 14 10  1  0
 15 14  2  0
 16 13  1  0
 17 14  1  0
 18 17  1  0
 19 18  2  0
 20 18  1  0
 21 19  1  0
 22 20  2  0
 23 22  1  0
 23 21  2  0
 24 22  1  0
 25 24  1  0
 26 21  1  0
 27 26  1  0
M  END
>  <SMILES>  (12) 
COc1cc(OC)cc(OC(=O)c2nn(-c3ccccc3)c(=O)cc2F)c1

>  <scaffold>  (12) 
benzene

$$$$

     RDKit          3D

 34 35  0  0  0  0  0  0  0  0999 V2000
    0.0000   -0.0000    0.0000 C   0  0  0  0  0  0  0  0  0  0  0  0
   -0.0000    0.0000    1.3862 C   0  0  0  0  0  0  0  0  0  0  0  0
    1.1928   -0.0000    2.0924 C   0  0  0  0  0  0  0  0  0  0  0  0
    1.2320    0.0000   -0.6353 C   0  0  0  0  0  0  0  0  0  0  0  0
    2.4710    0.0000    0.0036 C   0  0  0  0  0  0  0  0  0  0  0  0
    2.3370    0.0000    1.3913 C   0  0  0  0  0  0  0  0  0  0  0  0
   -1.5402   -0.0000    2.1804 Cl  0  0  0  0  0  0  0  0  0  0  0  0
    3.7130    0.0522   -0.4949 O   0  0  0  0  0  0  0  0  0  0  0  0
    3.7787    0.0554   -1.9117 C   0  0  0  0  0  0  0  0  0  0  0  0
    5.2817    0.0580   -2.1862 C   0  0  0  0  0  0  0  0  0  0  0  0
    6.0254   -1.2109   -1.7722 C   0  0  0  0  0  0  0  0  0  0  0  0
    7.3906   -0.9954   -2.0522 O   0  0  0  0  0  0  0  0  0  0  0  0
    8.2269   -2.0695   -1.7905 C   0  0  0  0  0  0  0  0  0  0  0  0
    7.8847   -3.2661   -1.1802 C   0  0  0  0  0  0  0  0  0  0  0  0
    9.5400   -1.8510   -2.2048 C   0  0  0  0  0  0  0  0  0  0  0  0
    8.8232   -4.2429   -0.9265 C   0  0  0  0  0  0  0  0  0  0  0  0
   10.4838   -2.8333   -1.9486 C   0  0  0  0  0  0  0  0  0  0  0  0
   10.1608   -4.0636   -1.2761 C   0  0  0  0  0  0  0  0  0  0  0  0
   11.0071   -5.0826   -0.9251 O   0  0  0  0  0  0  0  0  0  0  0  0
   12.3689   -4.9685   -1.3046 C   0  0  0  0  0  0  0  0  0  0  0  0
   13.0455   -6.2481   -0.8435 C   0  0  0  0  0  0  0  0  0  0  0  0
   13.0812   -6.4042    0.5254 O   0  0  0  0  0  0  0  0  0  0  0  0
   14.0917   -5.6902    1.2187 C   0  0  0  0  0  0  0  0  0  0  0  0
   13.8993   -5.8352    2.7274 C   0  0  0  0  0  0  0  0  0  0  0  0
   14.8964   -5.0582    3.6011 C   0  0  1  0  0  0  0  0  0  0  0  0
   14.6577   -3.5512    3.5220 C   0  0  0  0  0  0  0  0  0  0  0  0
   14.8474   -5.4771    5.0695 C   0  0  0  0  0  0  0  0  0  0  0  0
   15.8532   -4.7761    5.9666 C   0  0  0  0  0  0  0  0  0  0  0  0
   15.8821   -5.1993    7.4344 C   0  0  0  0  0  0  0  0  0  0  0  0
   16.9472   -4.5037    8.2806 C   0  0  0  0  0  0  0  0  0  0  0  0
   16.8991   -4.9139    9.7246 C   0  0  0  0  0  0  0  0  0  0  0  0
   17.9097   -4.2050   10.6249 C   0  0  0  0  0  0  0  0  0  0  0  0
   17.7838   -4.6147   12.0823 C   0  0  0  0  0  0  0  0  0  0  0  0
   18.7368   -3.8927   13.0336 C   0  0  0  0  0  0  0  0  0  0  0  0
  2  1  2  0
  3  2  1  0
  4  1  1  0
  5  4  2  0
  6  5  1  0
  6  3  2  0
  7  2  1  0
  8  5  1  0
  9  8  1  0
 10  9  1  0
 11 10  1  0
 12 11  1  0
 13 12  1  0
 14 13  2  0
 15 13  1  0
 16 14  1  0
 17 15  2  0
 18 17  1  0
 18 16  2  0
 19 18  1  0
 20 19  1  0
 21 20  1  0
 22 21  1  0
 23 22  1  0
 24 23  1  0
 25 24  1  0
 25 26  1  1
 27 25  1  0
 28 27  1  0
 29 28  1  0
 30 29  1  0
 31 30  1  0
 32 31  1  0
 33 32  1  0
 34 33  1  0
M  END
>  <SMILES>  (13) 
CCCCCCCCC(C)CCOCCOc1ccc(OCCCOc2ccc(Cl)cc2)cc1

>  <scaffold>  (13) 
benzene

$$$$

     RDKit          3D

 26 27  0  0  0  0  0  0  0  0999 V2000
    0.0000    0.0000   -0.0000 C   0  0  0  0  0  0  0  0  0  0  0  0
    0.0000   -0.0000    1.3862 C   0  0  0  0  0  0  0  0  0  0  0  0
    1.2042    0.0000    2.0726 C   0  0  0  0  0  0  0  0  0  0  0  0
    1.1652   -0.0000   -0.7508 C   0  0  0  0  0  0  0  0  0  0  0  0
    2.3972   -0.0000   -0.1155 C   0  0  0  0  0  0  0  0  0  0  0  0
    2.3972    0.0000    1.2706 C   0  0  0  0  0  0  0  0  0  0  0  0
    3.5948    0.0503   -0.8274 N   0  0  0  0  0  0  0  0  0  0  0  0
    3.7693    0.2926   -2.1568 C   0  0  0  0  0  0  0  0  0  0  0  0
    2.9159    0.3417   -3.0009 O   0  0  0  0  0  0  0  0  0  0  0  0
    5.0752    0.4019   -2.3937 O   0  0  0  0  0  0  0  0  0  0  0  0
    5.4634    0.7156   -3.7387 C   0  0  0  0  0  0  0  0  0  0  0  0
    5.3573    2.1734   -3.9997 C   0  0  0  0  0  0  0  0  0  0  0  0
    6.3806    2.9525   -4.0372 N   0  0  0  0  0  0  0  0  0  0  0  0
    3.8115    2.9718   -4.1047 S   0  0  0  0  0  0  0  0  0  0  0  0
    6.0170    4.2260   -4.2367 C   0  0  0  0  0  0  0  0  0  0  0  0
    4.6422    4.4871   -4.3319 C   0  0  0  0  0  0  0  0  0  0  0  0
    3.9186    5.7392   -4.4528 C   0  0  0  0  0  0  0  0  0  0  0  0
    4.5451    6.7883   -4.4307 O   0  0  0  0  0  0  0  0  0  0  0  0
    7.0442    5.2662   -4.3685 C   0  0  0  0  0  0  0  0  0  0  0  0
    2.5766    5.6848   -4.5551 N   0  0  0  0  0  0  0  0  0  0  0  0
    1.6827    6.8046   -4.6257 C   0  0  0  0  0  0  0  0  0  0  0  0
    0.7558    6.8996   -3.4148 C   0  0  0  0  0  0  0  0  0  0  0  0
   -0.0930    7.9855   -3.6242 O   0  0  0  0  0  0  0  0  0  0  0  0
   -0.8499    8.3433   -2.4794 C   0  0  0  0  0  0  0  0  0  0  0  0
   -2.0182    7.4073   -2.1738 C   0  0  0  0  0  0  0  0  0  0  0  0
   -2.8701    7.9126   -1.0335 C   0  0  0  0  0  0  0  0  0  0  0  0
  2  1  2  0
  3  2  1  0
  4  1  1  0
  5  4  2  0
  6  5  1  0
  6  3  2  0
  7  5  1  0
  8  7  1  0
  9  8  2  0
 10  8  1  0
 11 10  1  0
 12 11  1  0
 13 12  1  0
 14 12  2  0
 15 13  2  0
 16 14  1  0
 16 15  1  0
 17 16  2  0
 18 17  1  0
 19 15  1  0
 20 17  1  0
 21 20  1  0
 22 21  1  0
 23 22  1  0
 24 23  1  0
 25 24  1  0
 26 25  1  0
M  CHG  2  14   1  18  -1
M  END
>  <SMILES>  (14) 
CCCOCCNC([O-])=C1[S+]=C(COC(=O)Nc2ccccc2)N=C1C

>  <scaffold>  (14) 
benzene

$$$$

     RDKit          3D

 16 17  0  0  0  0  0  0  0  0999 V2000
   -0.0000    0.0000   -0.0000 C   0  0  0  0  0  0  0  0  0  0  0  0
   -0.0000    0.0000    1.3862 C   0  0  0  0  0  0  0  0  0  0  0  0
    1.1974    0.0000    2.0687 C   0  0  0  0  0  0  0  0  0  0  0  0
    1.1990    0.0589   -0.6931 C   0  0  0  0  0  0  0  0  0  0  0  0
    2.4295    0.1194   -0.0578 C   0  0  0  0  0  0  0  0  0  0  0  0
    2.4956    0.1226    1.3348 C   0  0  0  0  0  0  0  0  0  0  0  0
    3.9629    0.1266    2.2753 S   0  0  0  0  0  0  0  0  0  0  0  0
    5.2567   -0.0753    0.9896 C   0  0  0  0  0  0  0  0  0  0  0  0
    6.5105   -0.2961    1.7536 C   0  0  0  0  0  0  0  0  0  0  0  0
    7.4246    0.6409    1.7476 N   0  0  0  0  0  0  0  0  0  0  0  0
    6.9067   -1.4821    2.4229 C   0  0  0  0  0  0  0  0  0  0  0  0
    8.3961    0.1642    2.5626 O   0  0  0  0  0  0  0  0  0  0  0  0
    8.1073   -1.1397    3.0068 C   0  0  0  0  0  0  0  0  0  0  0  0
    9.0542   -1.9647    3.7987 C   0  0  0  0  0  0  0  0  0  0  0  0
    8.8649   -3.1259    4.0416 O   0  0  0  0  0  0  0  0  0  0  0  0
   10.1002   -1.2586    4.2471 O   0  0  0  0  0  0  0  0  0  0  0  0
  2  1  2  0
  3  2  1  0
  4  1  1  0
  5  4  2  0
  6  5  1  0
  6  3  2  0
  7  6  1  0
  8  7  1  0
  9  8  1  0
 10  9  2  0
 11  9  1  0
 12 10  1  0
 13 12  1  0
 13 11  2  0
 14 13  1  0
 15 14  2  0
 16 14  1  0
M  END
>  <SMILES>  (15) 
O=C(O)c1cc(CSc2ccccc2)no1

>  <scaffold>  (15) 
benzene

$$$$

     RDKit          3D

 33 35  0  0  0  0  0  0  0  0999 V2000
    0.0000    0.0000    0.0000 C   0  0  0  0  0  0  0  0  0  0  0  0
   -0.0000    0.0000    1.3862 C   0  0  0  0  0  0  0  0  0  0  0  0
    1.1928    0.0000    2.0924 C   0  0  0  0  0  0  0  0  0  0  0  0
    1.2250   -0.0000   -0.6317 C   0  0  0  0  0  0  0  0  0  0  0  0
    2.4569    0.0000    0.0036 C   0  0  0  0  0  0  0  0  0  0  0  0
    2.3901   -0.0592    1.3949 C   0  0  0  0  0  0  0  0  0  0  0  0
   -1.2110    0.0000    2.0107 O   0  0  0  0  0  0  0  0  0  0  0  0
    3.7031   -0.0497   -0.5831 O   0  0  0  0  0  0  0  0  0  0  0  0
    3.8602    0.6205   -1.7499 C   0  0  0  0  0  0  0  0  0  0  0  0
    3.1059    1.6108   -2.1547 N   0  0  0  0  0  0  0  0  0  0  0  0
    5.0034    0.2550   -2.4592 C   0  0  0  0  0  0  0  0  0  0  0  0
    3.3271    2.2722   -3.2891 N   0  0  0  0  0  0  0  0  0  0  0  0
    5.2310    0.9460   -3.6297 C   0  0  0  0  0  0  0  0  0  0  0  0
    4.3371    1.9369   -4.0514 C   0  0  0  0  0  0  0  0  0  0  0  0
    6.2748    0.6457   -4.4265 O   0  0  0  0  0  0  0  0  0  0  0  0
    7.2346   -0.3196   -4.1258 C   0  0  0  0  0  0  0  0  0  0  0  0
    8.0511   -0.1665   -3.0162 C   0  0  0  0  0  0  0  0  0  0  0  0
    7.3835   -1.3872   -4.9848 C   0  0  0  0  0  0  0  0  0  0  0  0
    9.0180   -1.1216   -2.7869 C   0  0  0  0  0  0  0  0  0  0  0  0
    8.3526   -2.3399   -4.7549 C   0  0  0  0  0  0  0  0  0  0  0  0
    9.2249   -2.1789   -3.6590 C   0  0  0  0  0  0  0  0  0  0  0  0
    4.5480    2.6564   -5.1520 O   0  0  0  0  0  0  0  0  0  0  0  0
   10.1289   -3.1662   -3.4504 O   0  0  0  0  0  0  0  0  0  0  0  0
    3.6921    3.7086   -5.5380 C   0  0  0  0  0  0  0  0  0  0  0  0
    2.3929    3.1726   -6.1373 C   0  0  0  0  0  0  0  0  0  0  0  0
    2.6206    2.3065   -7.3751 C   0  0  0  0  0  0  0  0  0  0  0  0
    1.2980    1.7522   -7.9023 C   0  0  0  0  0  0  0  0  0  0  0  0
    1.4769    0.8333   -9.1097 C   0  0  0  0  0  0  0  0  0  0  0  0
    0.1336    0.2639   -9.5633 C   0  0  0  0  0  0  0  0  0  0  0  0
    0.2641   -0.7007  -10.7296 C   0  0  0  0  0  0  0  0  0  0  0  0
   -1.0972   -1.2818  -11.1082 C   0  0  0  0  0  0  0  0  0  0  0  0
   -1.0284   -2.2182  -12.3135 C   0  0  0  0  0  0  0  0  0  0  0  0
   -2.4202   -2.7282  -12.6839 C   0  0  0  0  0  0  0  0  0  0  0  0
  2  1  2  0
  3  2  1  0
  4  1  1  0
  5  4  2  0
  6  5  1  0
  6  3  2  0
  7  2  1  0
  8  5  1  0
  9  8  1  0
 10  9  2  0
 11  9  1  0
 12 10  1  0
 13 11  2  0
 14 13  1  0
 14 12  2  0
 15 13  1  0
 16 15  1  0
 17 16  2  0
 18 16  1  0
 19 17  1  0
 20 18  2  0
 21 20  1  0
 21 19  2  0
 22 14  1  0
 23 21  1  0
 24 22  1  0
 25 24  1  0
 26 25  1  0
 27 26  1  0
 28 27  1  0
 29 28  1  0
 30 29  1  0
 31 30  1  0
 32 31  1  0
 33 32  1  0
M  END
>  <SMILES>  (16) 
CCCCCCCCCCOc1nnc(Oc2ccc(O)cc2)cc1Oc1ccc(O)cc1

>  <scaffold>  (16) 
benzene

$$$$

     RDKit          3D

 30 32  0  0  0  0  0  0  0  0999 V2000
   -0.0000    0.0000    0.0000 C   0  0  0  0  0  0  0  0  0  0  0  0
    0.0000    0.0000    1.3862 C   0  0  0  0  0  0  0  0  0  0  0  0
    1.2223   -0.0000    2.0566 C   0  0  0  0  0  0  0  0  0  0  0  0
    1.1652    0.0000   -0.7508 C   0  0  0  0  0  0  0  0  0  0  0  0
    2.3972    0.0000   -0.1155 C   0  0  0  0  0  0  0  0  0  0  0  0
    2.3972    0.0000    1.2786 C   0  0  0  0  0  0  0  0  0  0  0  0
   -1.1719    0.0000    2.1413 N   0  0  0  0  0  0  0  0  0  0  0  0
   -2.4752    0.0000    1.7439 C   0  0  0  0  0  0  0  0  0  0  0  0
   -2.8068   -0.0000    0.5749 O   0  0  0  0  0  0  0  0  0  0  0  0
   -3.4181   -0.0583    2.8783 C   0  0  0  0  0  0  0  0  0  0  0  0
   -4.7975   -0.0153    2.7485 C   0  0  0  0  0  0  0  0  0  0  0  0
   -3.0965   -0.1711    4.2550 C   0  0  0  0  0  0  0  0  0  0  0  0
   -5.3080   -0.1450    3.9883 O   0  0  0  0  0  0  0  0  0  0  0  0
   -4.3125   -0.2357    4.8664 C   0  0  0  0  0  0  0  0  0  0  0  0
   -5.7167    0.0905    1.5874 C   0  0  0  0  0  0  0  0  0  0  0  0
   -4.6598   -0.3040    6.3260 C   0  0  0  0  0  0  0  0  0  0  0  0
   -3.5778   -0.7308    7.1233 O   0  0  0  0  0  0  0  0  0  0  0  0
   -3.1659   -2.0303    6.9843 C   0  0  0  0  0  0  0  0  0  0  0  0
   -3.7136   -3.0029    6.2029 C   0  0  0  0  0  0  0  0  0  0  0  0
   -2.0498   -2.3960    7.7648 C   0  0  0  0  0  0  0  0  0  0  0  0
   -3.2288   -4.3185    6.1882 C   0  0  0  0  0  0  0  0  0  0  0  0
   -1.5305   -3.6552    7.8010 C   0  0  0  0  0  0  0  0  0  0  0  0
   -2.1153   -4.5985    6.9648 C   0  0  0  0  0  0  0  0  0  0  0  0
   -1.5185   -5.8319    6.9915 O   0  0  0  0  0  0  0  0  0  0  0  0
   -2.0287   -6.9350    6.2764 C   0  0  0  0  0  0  0  0  0  0  0  0
   -3.2617   -7.5166    6.9661 C   0  0  0  0  0  0  0  0  0  0  0  0
   -3.8214   -8.7499    6.2589 C   0  0  0  0  0  0  0  0  0  0  0  0
   -5.0881   -9.3379    6.8786 C   0  0  0  0  0  0  0  0  0  0  0  0
   -5.6337  -10.5279    6.1078 C   0  0  0  0  0  0  0  0  0  0  0  0
   -6.9315  -11.1190    6.6561 C   0  0  0  0  0  0  0  0  0  0  0  0
  2  1  2  0
  3  2  1  0
  4  1  1  0
  5  4  2  0
  6  5  1  0
  6  3  2  0
  7  2  1  0
  8  7  1  0
  9  8  2  0
 10  8  1  0
 11 10  2  0
 12 10  1  0
 13 11  1  0
 14 13  1  0
 14 12  2  0
 15 11  1  0
 16 14  1  0
 17 16  1  0
 18 17  1  0
 19 18  2  0
 20 18  1  0
 21 19  1  0
 22 20  2  0
 23 22  1  0
 23 21  2  0
 24 23  1  0
 25 24  1  0
 26 25  1  0
 27 26  1  0
 28 27  1  0
 29 28  1  0
 30 29  1  0
M  END
>  <SMILES>  (17) 
CCCCCCOc1ccc(OCc2cc(C(=O)Nc3ccccc3)c(C)o2)cc1

>  <scaffold>  (17) 
benzene

$$$$

     RDKit          3D

 23 25  0  0  0  0  0  0  0  0999 V2000
    0.0000    0.0000   -0.0000 C   0  0  0  0  0  0  0  0  0  0  0  0
   -0.0000    0.0000    1.3782 C   0  0  0  0  0  0  0  0  0  0  0  0
    1.1810    0.0000    2.1040 C   0  0  0  0  0  0  0  0  0  0  0  0
    1.1990   -0.0589   -0.6931 C   0  0  0  0  0  0  0  0  0  0  0  0
    2.3628   -0.1161    0.0578 C   0  0  0  0  0  0  0  0  0  0  0  0
    2.3650   -0.0562    1.4667 C   0  0  0  0  0  0  0  0  0  0  0  0
    3.5967   -0.2299   -0.5088 O   0  0  0  0  0  0  0  0  0  0  0  0
   -1.1719   -0.0000    2.1334 N   0  0  0  0  0  0  0  0  0  0  0  0
   -2.3287   -0.0000    1.5368 N   0  0  0  0  0  0  0  0  0  0  0  0
   -1.1241    0.0478    3.4558 N   0  0  0  0  0  0  0  0  0  0  0  0
   -3.1157    0.0518    2.5910 C   0  0  0  0  0  0  0  0  0  0  0  0
   -2.3722    0.0825    3.7960 N   0  0  0  0  0  0  0  0  0  0  0  0
    3.7286   -0.2945   -1.9114 C   0  0  0  0  0  0  0  0  0  0  0  0
   -4.8336    0.1441    2.3825 S   0  0  0  0  0  0  0  0  0  0  0  0
   -5.3008   -0.7133    3.9487 C   0  0  0  0  0  0  0  0  0  0  0  0
   -5.4758   -2.1839    3.6992 C   0  0  0  0  0  0  0  0  0  0  0  0
   -4.3818   -3.0351    3.6957 C   0  0  0  0  0  0  0  0  0  0  0  0
   -6.7284   -2.7418    3.4966 C   0  0  0  0  0  0  0  0  0  0  0  0
   -4.4879   -4.3897    3.4215 C   0  0  0  0  0  0  0  0  0  0  0  0
   -6.8346   -4.0806    3.2241 C   0  0  0  0  0  0  0  0  0  0  0  0
   -5.7359   -4.8702    3.0880 C   0  0  0  0  0  0  0  0  0  0  0  0
   -5.9169   -6.5337    2.6770 Cl  0  0  0  0  0  0  0  0  0  0  0  0
   -8.0400   -4.6627    2.9699 O   0  0  0  0  0  0  0  0  0  0  0  0
  2  1  2  0
  3  2  1  0
  4  1  1  0
  5  4  2  0
  6  5  1  0
  6  3  2  0
  7  5  1  0
  8  2  1  0
  9  8  1  0
 10  8  1  0
 11  9  2  0
 12 11  1  0
 12 10  2  0
 13  7  1  0
 14 11  1  0
 15 14  1  0
 16 15  1  0
 17 16  2  0
 18 16  1  0
 19 17  1  0
 20 18  2  0
 21 20  1  0
 21 19  2  0
 22 21  1  0
 23 20  1  0
M  END
>  <SMILES>  (18) 
COc1ccc(-n2nnc(SCc3ccc(Cl)c(O)c3)n2)cc1

>  <scaffold>  (18) 
benzene

$$$$

     RDKit          3D

 21 22  0  0  0  0  0  0  0  0999 V2000
   -0.0000   -0.0000    0.0000 C   0  0  0  0  0  0  0  0  0  0  0  0
    0.0000   -0.0000    1.4021 C   0  0  0  0  0  0  0  0  0  0  0  0
    1.1928   -0.0000    2.1083 C   0  0  0  0  0  0  0  0  0  0  0  0
    1.2059   -0.0592   -0.6971 C   0  0  0  0  0  0  0  0  0  0  0  0
    2.3995   -0.0592   -0.0079 C   0  0  0  0  0  0  0  0  0  0  0  0
    2.4674   -0.0021    1.3754 C   0  0  0  0  0  0  0  0  0  0  0  0
   -1.1990    0.0589   -0.6931 N   0  0  0  0  0  0  0  0  0  0  0  0
   -2.3586    1.2185   -0.2696 S   0  0  0  0  0  6  0  0  0  0  0  0
   -1.9929    1.8832    0.9576 O   0  0  0  0  0  0  0  0  0  0  0  0
   -3.6306    0.5778   -0.3487 O   0  0  0  0  0  0  0  0  0  0  0  0
   -2.2143    2.3873   -1.6088 C   0  0  0  0  0  0  0  0  0  0  0  0
   -3.3159    2.6716   -2.4007 C   0  0  0  0  0  0  0  0  0  0  0  0
   -1.0152    2.9995   -1.8182 C   0  0  0  0  0  0  0  0  0  0  0  0
   -3.1459    3.5339   -3.4419 C   0  0  0  0  0  0  0  0  0  0  0  0
   -0.8407    3.8825   -2.8828 C   0  0  0  0  0  0  0  0  0  0  0  0
   -1.9429    4.1555   -3.7737 C   0  0  0  0  0  0  0  0  0  0  0  0
    0.4398    4.4560   -3.0896 N   0  0  0  0  0  0  0  0  0  0  0  0
    1.3485    4.0828   -2.3981 O   0  0  0  0  0  0  0  0  0  0  0  0
    0.6262    5.2772   -3.9946 O   0  0  0  0  0  0  0  0  0  0  0  0
   -1.7157    4.9793   -4.8249 N   0  0  0  0  0  0  0  0  0  0  0  0
   -2.6101    5.2582   -5.8465 C   0  0  0  0  0  0  0  0  0  0  0  0
  2  1  2  0
  3  2  1  0
  4  1  1  0
  5  4  2  0
  6  5  1  0
  6  3  2  0
  7  1  1  0
  8  7  1  0
  9  8  2  0
 10  8  2  0
 11  8  1  0
 12 11  2  0
 13 11  1  0
 14 12  1  0
 15 13  2  0
 16 15  1  0
 16 14  2  0
 17 15  1  0
 18 17  2  0
 19 17  1  0
 20 16  1  0
 21 20  1  0
M  CHG  2  17   1  19  -1
M  END
>  <SMILES>  (19) 
CNc1ccc(S(=O)(=O)Nc2ccccc2)cc1[N+](=O)[O-]

>  <scaffold>  (19) 
benzene

$$$$

     RDKit          3D

 29 31  0  0  0  0  0  0  0  0999 V2000
   -0.0000    0.0000   -0.0000 C   0  0  0  0  0  0  0  0  0  0  0  0
   -0.0000   -0.0000    1.4021 C   0  0  0  0  0  0  0  0  0  0  0  0
    1.2294   -0.0000    2.0764 C   0  0  0  0  0  0  0  0  0  0  0  0
    1.1922   -0.0586   -0.6891 C   0  0  0  0  0  0  0  0  0  0  0  0
    2.3926   -0.0586    0.0040 C   0  0  0  0  0  0  0  0  0  0  0  0
    2.4605   -0.0014    1.3873 C   0  0  0  0  0  0  0  0  0  0  0  0
    3.5886   -0.0661   -0.6323 F   0  0  0  0  0  0  0  0  0  0  0  0
   -1.1786    0.0579    2.0834 N   0  0  0  0  0  0  0  0  0  0  0  0
   -2.5169   -0.1406    1.5361 C   0  0  0  0  0  0  0  0  0  0  0  0
   -2.7068   -1.5493    1.0784 C   0  0  0  0  0  0  0  0  0  0  0  0
   -2.9492   -2.6905    1.7822 C   0  0  0  0  0  0  0  0  0  0  0  0
   -2.6170   -1.8420   -0.2255 O   0  0  0  0  0  0  0  0  0  0  0  0
   -2.9884   -3.7371    0.8742 C   0  0  0  0  0  0  0  0  0  0  0  0
   -2.7736   -3.1798   -0.3713 C   0  0  0  0  0  0  0  0  0  0  0  0
   -2.7767   -3.7762   -1.7309 C   0  0  0  0  0  0  0  0  0  0  0  0
   -4.1957   -4.0048   -2.2746 C   0  0  0  0  0  0  0  0  0  0  0  0
   -4.2537   -4.6603   -3.6341 C   0  0  0  0  0  0  0  0  0  0  0  0
   -4.6032   -5.9846   -3.7882 C   0  0  0  0  0  0  0  0  0  0  0  0
   -3.8806   -3.9301   -4.7517 C   0  0  0  0  0  0  0  0  0  0  0  0
   -4.6902   -6.5260   -5.0527 C   0  0  0  0  0  0  0  0  0  0  0  0
   -3.9640   -4.4699   -6.0171 C   0  0  0  0  0  0  0  0  0  0  0  0
   -4.4387   -5.7926   -6.2113 C   0  0  0  0  0  0  0  0  0  0  0  0
   -4.4649   -6.3023   -7.4915 N   0  0  0  0  0  0  0  0  0  0  0  0
   -5.1314   -7.5502   -7.7751 C   0  0  0  0  0  0  0  0  0  0  0  0
   -6.6534   -7.4261   -7.7249 C   0  0  0  0  0  0  0  0  0  0  0  0
   -7.3102   -8.7578   -8.0849 C   0  0  0  0  0  0  0  0  0  0  0  0
   -8.8356   -8.6721   -8.1024 C   0  0  0  0  0  0  0  0  0  0  0  0
   -9.4369  -10.0039   -8.5176 C   0  0  0  0  0  0  0  0  0  0  0  0
  -10.9442   -9.9559   -8.6027 C   0  0  0  0  0  0  0  0  0  0  0  0
  2  1  2  0
  3  2  1  0
  4  1  1  0
  5  4  2  0
  6  5  1  0
  6  3  2  0
  7  5  1  0
  8  2  1  0
  9  8  1  0
 10  9  1  0
 11 10  2  0
 12 10  1  0
 13 11  1  0
 14 13  2  0
 14 12  1  0
 15 14  1  0
 16 15  1  0
 17 16  1  0
 18 17  2  0
 19 17  1  0
 20 18  1  0
 21 19  2  0
 22 20  2  0
 22 21  1  0
 23 22  1  0
 24 23  1  0
 25 24  1  0
 26 25  1  0
 27 26  1  0
 28 27  1  0
 29 28  1  0
M  END
>  <SMILES>  (20) 
CCCCCCNc1ccc(CCc2ccc(CNc3ccc(F)cc3)o2)cc1

>  <scaffold>  (20) 
benzene

$$$$

     RDKit          3D

 27 29  0  0  0  0  0  0  0  0999 V2000
    0.0000    0.0000    0.0000 C   0  0  0  0  0  0  0  0  0  0  0  0
    0.0000   -0.0000    1.3862 C   0  0  0  0  0  0  0  0  0  0  0  0
    1.2042   -0.0000    2.0726 C   0  0  0  0  0  0  0  0  0  0  0  0
    1.1585    0.0000   -0.7465 C   0  0  0  0  0  0  0  0  0  0  0  0
    2.3976    0.0000   -0.1076 C   0  0  0  0  0  0  0  0  0  0  0  0
    2.3976    0.0000    1.2945 C   0  0  0  0  0  0  0  0  0  0  0  0
    3.5748   -0.0494   -0.8073 N   0  0  0  0  0  0  0  0  0  0  0  0
    3.6335    0.0771   -2.1317 N   0  0  0  0  0  0  0  0  0  0  0  0
    4.7432   -0.0204   -2.7458 C   0  0  0  0  0  0  0  0  0  0  0  0
    4.8655    0.1602   -4.1720 C   0  0  0  0  0  0  0  0  0  0  0  0
    6.0665   -0.1590   -4.8215 C   0  0  0  0  0  0  0  0  0  0  0  0
    3.8108    0.6350   -4.9503 C   0  0  0  0  0  0  0  0  0  0  0  0
    6.2145   -0.0492   -6.1954 C   0  0  0  0  0  0  0  0  0  0  0  0
    3.9597    0.7452   -6.3240 C   0  0  0  0  0  0  0  0  0  0  0  0
    5.1443    0.4482   -6.9225 C   0  0  0  0  0  0  0  0  0  0  0  0
    5.2514    0.5524   -8.6893 S   0  0  0  0  0  0  0  0  0  0  0  0
    2.9799    1.2466   -7.1140 O   0  0  0  0  0  0  0  0  0  0  0  0
    1.7083    1.6394   -6.6240 C   0  0  0  0  0  0  0  0  0  0  0  0
    6.9350    0.1196   -9.1709 C   0  0  0  0  0  0  0  0  0  0  0  0
    7.9387    1.0686   -9.0541 C   0  0  0  0  0  0  0  0  0  0  0  0
    7.1824   -1.1326   -9.6908 C   0  0  0  0  0  0  0  0  0  0  0  0
    9.2061    0.7060   -9.4826 C   0  0  0  0  0  0  0  0  0  0  0  0
    8.4285   -1.4865  -10.1132 C   0  0  0  0  0  0  0  0  0  0  0  0
    9.4798   -0.5298  -10.0669 C   0  0  0  0  0  0  0  0  0  0  0  0
   10.6566   -0.9750  -10.5694 O   0  0  0  0  0  0  0  0  0  0  0  0
   11.7728   -0.1217  -10.4493 C   0  0  0  0  0  0  0  0  0  0  0  0
   12.3677   -0.1376   -9.0421 C   0  0  0  0  0  0  0  0  0  0  0  0
  2  1  2  0
  3  2  1  0
  4  1  1  0
  5  4  2  0
  6  5  1  0
  6  3  2  0
  7  5  1  0
  8  7  1  0
  9  8  2  0
 10  9  1  0
 11 10  2  0
 12 10  1  0
 13 11  1  0
 14 12  2  0
 15 14  1  0
 15 13  2  0
 16 15  1  0
 17 14  1  0
 18 17  1  0
 19 16  1  0
 20 19  2  0
 21 19  1  0
 22 20  1  0
 23 21  2  0
 24 23  1  0
 24 22  2  0
 25 24  1  0
 26 25  1  0
 27 26  1  0
M  END
>  <SMILES>  (21) 
CCOc1ccc(Sc2ccc(C=NNc3ccccc3)cc2OC)cc1

>  <scaffold>  (21) 
benzene

$$$$

     RDKit          3D

 25 26  0  0  0  0  0  0  0  0999 V2000
    0.0000   -0.0000   -0.0000 C   0  0  0  0  0  0  0  0  0  0  0  0
   -0.0000    0.0000    1.3862 C   0  0  0  0  0  0  0  0  0  0  0  0
    1.2154    0.0000    2.0527 C   0  0  0  0  0  0  0  0  0  0  0  0
    1.1922    0.0586   -0.6891 C   0  0  0  0  0  0  0  0  0  0  0  0
    2.4227    0.1190   -0.0538 C   0  0  0  0  0  0  0  0  0  0  0  0
    2.4248    0.0595    1.3471 C   0  0  0  0  0  0  0  0  0  0  0  0
   -1.1117    0.0546    2.1855 O   0  0  0  0  0  0  0  0  0  0  0  0
    3.6637    0.2335   -0.6237 O   0  0  0  0  0  0  0  0  0  0  0  0
    3.6659    0.1730   -2.0245 C   0  0  0  0  0  0  0  0  0  0  0  0
    3.6415    0.0665    2.0277 N   0  0  0  0  0  0  0  0  0  0  0  0
   -2.4010    0.0546    1.5946 C   0  0  0  0  0  0  0  0  0  0  0  0
   -2.8091   -1.3399    1.1223 C   0  0  0  0  0  0  0  0  0  0  0  0
    3.8093    0.8927    3.4745 S   0  0  0  0  0  6  0  0  0  0  0  0
    5.2256    1.0553    3.6346 O   0  0  0  0  0  0  0  0  0  0  0  0
    3.0411    0.2485    4.4891 O   0  0  0  0  0  0  0  0  0  0  0  0
    2.9970    2.4407    3.0736 C   0  0  0  0  0  0  0  0  0  0  0  0
    1.7777    2.7450    3.6394 C   0  0  0  0  0  0  0  0  0  0  0  0
    3.5887    3.3125    2.1729 C   0  0  0  0  0  0  0  0  0  0  0  0
    1.1654    3.9298    3.2615 C   0  0  0  0  0  0  0  0  0  0  0  0
    2.9715    4.5033    1.7926 C   0  0  0  0  0  0  0  0  0  0  0  0
    1.7714    4.8294    2.3857 C   0  0  0  0  0  0  0  0  0  0  0  0
    1.2015    5.9546    1.9585 O   0  0  0  0  0  0  0  0  0  0  0  0
    3.5068    5.3911    0.8486 N   0  0  0  0  0  0  0  0  0  0  0  0
    4.8309    5.6006    0.6045 C   0  0  0  0  0  0  0  0  0  0  0  0
    5.7553    5.1503    1.2256 O   0  0  0  0  0  0  0  0  0  0  0  0
  2  1  2  0
  3  2  1  0
  4  1  1  0
  5  4  2  0
  6  5  1  0
  6  3  2  0
  7  2  1  0
  8  5  1  0
  9  8  1  0
 10  6  1  0
 11  7  1  0
 12 11  1  0
 13 10  1  0
 14 13  2  0
 15 13  2  0
 16 13  1  0
 17 16  2  0
 18 16  1  0
 19 17  1  0
 20 18  2  0
 21 20  1  0
 21 19  2  0
 22 21  1  0
 23 20  1  0
 24 23  1  0
 25 24  2  0
M  END
>  <SMILES>  (22) 
CCOc1ccc(OC)c(NS(=O)(=O)c2ccc(O)c(NC=O)c2)c1

>  <scaffold>  (22) 
benzene

$$$$

     RDKit          3D

 24 26  0  0  0  0  0  0  0  0999 V2000
   -0.0000   -0.0000    0.0000 C   0  0  0  0  0  0  0  0  0  0  0  0
    0.0000   -0.0000    1.3862 C   0  0  0  0  0  0  0  0  0  0  0  0
    1.2223    0.0000    2.0566 C   0  0  0  0  0  0  0  0  0  0  0  0
    1.1585   -0.0000   -0.7465 C   0  0  0  0  0  0  0  0  0  0  0  0
    2.3976   -0.0000   -0.1076 C   0  0  0  0  0  0  0  0  0  0  0  0
    2.3976   -0.0000    1.2865 C   0  0  0  0  0  0  0  0  0  0  0  0
   -1.2198   -0.0000    2.1722 C   0  0  0  0  0  0  0  0  0  0  0  0
   -1.2713   -0.3253    3.4314 N   0  0  0  0  0  0  0  0  0  0  0  0
   -2.4285    0.3667    1.6612 N   0  0  0  0  0  0  0  0  0  0  0  0
   -2.5654   -0.1510    3.8208 O   0  0  0  0  0  0  0  0  0  0  0  0
   -3.2017    0.2707    2.6852 C   0  0  0  0  0  0  0  0  0  0  0  0
    3.6204    0.0538   -0.7411 O   0  0  0  0  0  0  0  0  0  0  0  0
    3.6198    0.1133   -2.1420 C   0  0  0  0  0  0  0  0  0  0  0  0
   -4.6380    0.6104    2.7180 C   0  0  0  0  0  0  0  0  0  0  0  0
   -4.8938    2.0017    3.2953 C   0  0  0  0  0  0  0  0  0  0  0  0
   -5.5304    2.8453    2.7242 O   0  0  0  0  0  0  0  0  0  0  0  0
   -4.3281    2.0938    4.5058 O   0  0  0  0  0  0  0  0  0  0  0  0
   -4.4602    3.2298    5.2608 C   0  0  0  0  0  0  0  0  0  0  0  0
   -4.2460    3.0103    6.5411 N   0  0  0  0  0  0  0  0  0  0  0  0
   -4.7401    4.5008    4.7836 C   0  0  0  0  0  0  0  0  0  0  0  0
   -4.2947    4.0238    7.3443 C   0  0  0  0  0  0  0  0  0  0  0  0
   -4.7963    5.5782    5.6413 C   0  0  0  0  0  0  0  0  0  0  0  0
   -4.5579    5.3367    6.9564 C   0  0  0  0  0  0  0  0  0  0  0  0
   -4.5312    6.3124    7.8736 O   0  0  0  0  0  0  0  0  0  0  0  0
  2  1  2  0
  3  2  1  0
  4  1  1  0
  5  4  2  0
  6  5  1  0
  6  3  2  0
  7  2  1  0
  8  7  2  0
  9  7  1  0
 10  8  1  0
 11 10  1  0
 11  9  2  0
 12  5  1  0
 13 12  1  0
 14 11  1  0
 15 14  1  0
 16 15  2  0
 17 15  1  0
 18 17  1  0
 19 18  2  0
 20 18  1  0
 21 19  1  0
 22 20  2  0
 23 21  2  0
 23 22  1  0
 24 23  1  0
M  END
>  <SMILES>  (23) 
COc1ccc(-c2noc(CC(=O)Oc3ccc(O)cn3)n2)cc1

>  <scaffold>  (23) 
benzene

$$$$

     RDKit          3D

 31 34  0  0  0  0  0  0  0  0999 V2000
   -0.0000   -0.0000   -0.0000 C   0  0  0  0  0  0  0  0  0  0  0  0
    0.0000   -0.0000    1.3862 C   0  0  0  0  0  0  0  0  0  0  0  0
    1.2042    0.0000    2.0726 C   0  0  0  0  0  0  0  0  0  0  0  0
    1.1990    0.0589   -0.6931 C   0  0  0  0  0  0  0  0  0  0  0  0
    2.4295    0.1194   -0.0578 C   0  0  0  0  0  0  0  0  0  0  0  0
    2.3619    0.1160    1.3267 C   0  0  0  0  0  0  0  0  0  0  0  0
    3.7437    0.2378   -0.7568 C   0  0  0  0  0  0  0  0  0  0  0  0
    3.8178   -0.9827   -2.1111 S   0  0  0  0  0  0  0  0  0  0  0  0
    3.8704   -2.4346   -1.1847 C   0  0  0  0  0  0  0  0  0  0  0  0
    3.9988   -2.4870    0.1095 N   0  0  0  0  0  0  0  0  0  0  0  0
    3.7763   -3.6568   -1.7615 O   0  0  0  0  0  0  0  0  0  0  0  0
    4.0358   -3.8095    0.3183 N   0  0  0  0  0  0  0  0  0  0  0  0
    3.9099   -4.5278   -0.7325 C   0  0  0  0  0  0  0  0  0  0  0  0
    3.9331   -5.9893   -0.8671 C   0  0  0  0  0  0  0  0  0  0  0  0
    5.1377   -6.8620    0.1896 S   0  0  0  0  0  0  0  0  0  0  0  0
    6.6120   -5.9888   -0.2254 C   0  0  0  0  0  0  0  0  0  0  0  0
    7.6403   -6.3244    0.6540 C   0  0  0  0  0  0  0  0  0  0  0  0
    6.8521   -5.0852   -1.2488 C   0  0  0  0  0  0  0  0  0  0  0  0
    8.8493   -5.7495    0.4004 C   0  0  0  0  0  0  0  0  0  0  0  0
    8.0749   -4.5031   -1.5044 C   0  0  0  0  0  0  0  0  0  0  0  0
    9.1572   -4.8706   -0.6370 C   0  0  0  0  0  0  0  0  0  0  0  0
   10.6838   -4.1592   -1.0451 Cl  0  0  0  0  0  0  0  0  0  0  0  0
    8.3706   -3.4925   -2.5512 C   0  0  0  0  0  0  0  0  0  0  0  0
    7.4341   -7.2156    1.6638 O   0  0  0  0  0  0  0  0  0  0  0  0
    8.4220   -7.5461    2.6024 C   0  0  0  0  0  0  0  0  0  0  0  0
    8.7617   -6.3943    3.5185 C   0  0  0  0  0  0  0  0  0  0  0  0
    9.8375   -6.5356    4.4065 C   0  0  0  0  0  0  0  0  0  0  0  0
    8.0977   -5.1866    3.5274 C   0  0  0  0  0  0  0  0  0  0  0  0
   10.1536   -5.5307    5.2952 C   0  0  0  0  0  0  0  0  0  0  0  0
    8.4140   -4.1757    4.4216 C   0  0  0  0  0  0  0  0  0  0  0  0
    9.4311   -4.3482    5.2645 C   0  0  0  0  0  0  0  0  0  0  0  0
  2  1  2  0
  3  2  1  0
  4  1  1  0
  5  4  2  0
  6  5  1  0
  6  3  2  0
  7  5  1  0
  8  7  1  0
  9  8  1  0
 10  9  2  0
 11  9  1  0
 12 10  1  0
 13 12  2  0
 13 11  1  0
 14 13  1  0
 15 14  1  0
 16 15  1  0
 17 16  1  0
 18 16  2  0
 19 17  2  0
 20 18  1  0
 21 20  2  0
 21 19  1  0
 22 21  1  0
 23 20  1  0
 24 17  1  0
 25 24  1  0
 26 25  1  0
 27 26  2  0
 28 26  1  0
 29 27  1  0
 30 28  2  0
 31 30  1  0
 31 29  2  0
M  END
>  <SMILES>  (24) 
Cc1cc(SCc2nnc(SCc3ccccc3)o2)c(OCc2ccccc2)cc1Cl

>  <scaffold>  (24) 
benzene

$$$$

     RDKit          3D

 28 30  0  0  0  0  0  0  0  0999 V2000
    0.0000   -0.0000   -0.0000 C   0  0  0  0  0  0  0  0  0  0  0  0
    0.0000    0.0000    1.3941 C   0  0  0  0  0  0  0  0  0  0  0  0
    1.2223    0.0000    2.0645 C   0  0  0  0  0  0  0  0  0  0  0  0
    1.1990    0.0589   -0.6931 C   0  0  0  0  0  0  0  0  0  0  0  0
    2.4295    0.1194   -0.0578 C   0  0  0  0  0  0  0  0  0  0  0  0
    2.4317    0.0601    1.3351 C   0  0  0  0  0  0  0  0  0  0  0  0
   -1.1719    0.0576    2.0715 F   0  0  0  0  0  0  0  0  0  0  0  0
    3.6130    0.2281   -0.8017 N   0  0  0  0  0  0  0  0  0  0  0  0
    4.8916    0.4544   -0.3888 C   0  0  0  0  0  0  0  0  0  0  0  0
    5.2459    0.5511    0.7550 O   0  0  0  0  0  0  0  0  0  0  0  0
    5.7149    0.5340   -1.4715 O   0  0  0  0  0  0  0  0  0  0  0  0
    7.0884    0.7035   -1.3922 C   0  0  0  0  0  0  0  0  0  0  0  0
    7.8017    0.0680   -0.3878 C   0  0  0  0  0  0  0  0  0  0  0  0
    7.7493    1.5214   -2.3075 C   0  0  0  0  0  0  0  0  0  0  0  0
    9.1474    0.2240   -0.3786 C   0  0  0  0  0  0  0  0  0  0  0  0
    9.1027    1.6791   -2.2984 C   0  0  0  0  0  0  0  0  0  0  0  0
    9.8256    0.9453   -1.3714 C   0  0  0  0  0  0  0  0  0  0  0  0
   11.1907    1.1187   -1.2934 N   0  0  0  0  0  0  0  0  0  0  0  0
   12.0878    1.5611   -2.2531 C   0  0  0  0  0  0  0  0  0  0  0  0
   13.2712    2.1703   -1.8661 C   0  0  0  0  0  0  0  0  0  0  0  0
   11.8397    1.3530   -3.6091 C   0  0  0  0  0  0  0  0  0  0  0  0
   14.2150    2.5814   -2.7825 C   0  0  0  0  0  0  0  0  0  0  0  0
   12.7784    1.7645   -4.5187 C   0  0  0  0  0  0  0  0  0  0  0  0
   14.0088    2.3960   -4.1488 C   0  0  0  0  0  0  0  0  0  0  0  0
   14.8344    2.8029   -5.1428 O   0  0  0  0  0  0  0  0  0  0  0  0
   16.0078    3.5445   -4.8141 C   0  0  0  0  0  0  0  0  0  0  0  0
   15.6874    5.0014   -4.4837 C   0  0  0  0  0  0  0  0  0  0  0  0
   16.9596    5.7319   -4.0889 C   0  0  0  0  0  0  0  0  0  0  0  0
  2  1  2  0
  3  2  1  0
  4  1  1  0
  5  4  2  0
  6  5  1  0
  6  3  2  0
  7  2  1  0
  8  5  1  0
  9  8  1  0
 10  9  2  0
 11  9  1  0
 12 11  1  0
 13 12  2  0
 14 12  1  0
 15 13  1  0
 16 14  2  0
 17 16  1  0
 17 15  2  0
 18 17  1  0
 19 18  1  0
 20 19  2  0
 21 19  1  0
 22 20  1  0
 23 21  2  0
 24 23  1  0
 24 22  2  0
 25 24  1  0
 26 25  1  0
 27 26  1  0
 28 27  1  0
M  END
>  <SMILES>  (25) 
CCCOc1ccc(Nc2ccc(OC(=O)Nc3ccc(F)cc3)cc2)cc1

>  <scaffold>  (25) 
benzene

$$$$

     RDKit          3D

 24 26  0  0  0  0  0  0  0  0999 V2000
   -0.0000   -0.0000    0.0000 C   0  0  0  0  0  0  0  0  0  0  0  0
   -0.0000   -0.0000    1.4021 C   0  0  0  0  0  0  0  0  0  0  0  0
    1.2223   -0.0000    2.0725 C   0  0  0  0  0  0  0  0  0  0  0  0
    1.1922    0.0586   -0.6891 C   0  0  0  0  0  0  0  0  0  0  0  0
    2.3926    0.0586    0.0040 C   0  0  0  0  0  0  0  0  0  0  0  0
    2.3955   -0.0584    1.3772 C   0  0  0  0  0  0  0  0  0  0  0  0
   -1.2041    0.0000    2.0231 O   0  0  0  0  0  0  0  0  0  0  0  0
    3.5372    0.1661   -0.7127 F   0  0  0  0  0  0  0  0  0  0  0  0
   -1.3572    0.1531    3.4247 C   0  0  0  0  0  0  0  0  0  0  0  0
   -1.1420    1.6070    3.8419 C   0  0  0  0  0  0  0  0  0  0  0  0
   -1.5878    1.9225    5.5939 S   0  0  0  0  0  0  0  0  0  0  0  0
   -0.0522    2.4155    6.3307 C   0  0  0  0  0  0  0  0  0  0  0  0
    0.2594    2.0026    7.6168 C   0  0  0  0  0  0  0  0  0  0  0  0
    0.8555    3.2900    5.7349 C   0  0  0  0  0  0  0  0  0  0  0  0
    1.4177    2.4010    8.2485 C   0  0  0  0  0  0  0  0  0  0  0  0
    1.9950    3.6761    6.3575 C   0  0  0  0  0  0  0  0  0  0  0  0
    2.3221    3.2377    7.6132 C   0  0  0  0  0  0  0  0  0  0  0  0
    3.5197    3.6552    8.1111 O   0  0  0  0  0  0  0  0  0  0  0  0
    3.8607    3.1923    9.3811 C   0  0  0  0  0  0  0  0  0  0  0  0
    4.9639    2.3589    9.4812 C   0  0  0  0  0  0  0  0  0  0  0  0
    3.1822    3.5675   10.5397 C   0  0  0  0  0  0  0  0  0  0  0  0
    5.3705    1.9138   10.7294 C   0  0  0  0  0  0  0  0  0  0  0  0
    3.5868    3.1220   11.7797 C   0  0  0  0  0  0  0  0  0  0  0  0
    4.6451    2.2501   11.8714 C   0  0  0  0  0  0  0  0  0  0  0  0
  2  1  2  0
  3  2  1  0
  4  1  1  0
  5  4  2  0
  6  5  1  0
  6  3  2  0
  7  2  1  0
  8  5  1  0
  9  7  1  0
 10  9  1  0
 11 10  1  0
 12 11  1  0
 13 12  2  0
 14 12  1  0
 15 13  1  0
 16 14  2  0
 17 16  1  0
 17 15  2  0
 18 17  1  0
 19 18  1  0
 20 19  2  0
 21 19  1  0
 22 20  1  0
 23 21  2  0
 24 22  2  0
 24 23  1  0
M  END
>  <SMILES>  (26) 
Fc1ccc(OCCSc2ccc(Oc3ccccc3)cc2)cc1

>  <scaffold>  (26) 
benzene

$$$$

     RDKit          3D

 35 37  0  0  0  0  0  0  0  0999 V2000
    0.0000   -0.0000    0.0000 C   0  0  0  0  0  0  0  0  0  0  0  0
   -0.0000   -0.0000    1.3862 C   0  0  0  0  0  0  0  0  0  0  0  0
    1.1974    0.0000    2.0687 C   0  0  0  0  0  0  0  0  0  0  0  0
    1.1922    0.0586   -0.6891 C   0  0  0  0  0  0  0  0  0  0  0  0
    2.4227    0.1190   -0.0538 C   0  0  0  0  0  0  0  0  0  0  0  0
    2.4887    0.1223    1.3387 C   0  0  0  0  0  0  0  0  0  0  0  0
    3.5994    0.2272   -0.7935 O   0  0  0  0  0  0  0  0  0  0  0  0
    3.6631    0.1313    1.9985 O   0  0  0  0  0  0  0  0  0  0  0  0
   -1.2320   -0.0000   -0.6353 O   0  0  0  0  0  0  0  0  0  0  0  0
   -1.3860   -0.9067   -1.6618 C   0  0  0  0  0  0  0  0  0  0  0  0
   -0.5539   -1.9000   -1.8474 N   0  0  0  0  0  0  0  0  0  0  0  0
   -2.4888   -0.7583   -2.5017 C   0  0  0  0  0  0  0  0  0  0  0  0
   -0.7652   -2.7646   -2.8072 N   0  0  0  0  0  0  0  0  0  0  0  0
   -2.7084   -1.6595   -3.4998 C   0  0  0  0  0  0  0  0  0  0  0  0
   -1.7704   -2.6868   -3.5949 C   0  0  0  0  0  0  0  0  0  0  0  0
   -1.8772   -3.8678   -4.8586 S   0  0  0  0  0  0  0  0  0  0  0  0
   -0.4645   -4.9416   -4.5978 C   0  0  0  0  0  0  0  0  0  0  0  0
    0.8290   -4.4472   -4.5356 C   0  0  0  0  0  0  0  0  0  0  0  0
   -0.7291   -6.3065   -4.4948 C   0  0  0  0  0  0  0  0  0  0  0  0
    1.8875   -5.3165   -4.3827 C   0  0  0  0  0  0  0  0  0  0  0  0
    0.3365   -7.1798   -4.3425 C   0  0  0  0  0  0  0  0  0  0  0  0
    1.6648   -6.6923   -4.3498 C   0  0  0  0  0  0  0  0  0  0  0  0
    2.7861   -7.4457   -4.2481 O   0  0  0  0  0  0  0  0  0  0  0  0
    2.6157   -8.8374   -4.2619 C   0  0  0  0  0  0  0  0  0  0  0  0
    2.1040   -9.4325   -5.5727 C   0  0  0  0  0  0  0  0  0  0  0  0
    1.6238  -10.5260   -5.7025 O   0  0  0  0  0  0  0  0  0  0  0  0
    2.2326   -8.5544   -6.5451 O   0  0  0  0  0  0  0  0  0  0  0  0
    1.8363   -9.0150   -7.8447 C   0  0  0  0  0  0  0  0  0  0  0  0
    2.8922   -9.9005   -8.5046 C   0  0  0  0  0  0  0  0  0  0  0  0
    2.5394  -10.3759   -9.9226 C   0  0  2  0  0  0  0  0  0  0  0  0
    3.6011  -11.3009  -10.5156 C   0  0  0  0  0  0  0  0  0  0  0  0
    2.3040   -9.1907  -10.8577 C   0  0  0  0  0  0  0  0  0  0  0  0
    3.2714  -11.8456  -11.9045 C   0  0  0  0  0  0  0  0  0  0  0  0
    4.3811  -12.7147  -12.4711 C   0  0  0  0  0  0  0  0  0  0  0  0
    4.0263  -13.1883  -13.8797 C   0  0  0  0  0  0  0  0  0  0  0  0
  2  1  2  0
  3  2  1  0
  4  1  1  0
  5  4  2  0
  6  5  1  0
  6  3  2  0
  7  5  1  0
  8  6  1  0
  9  1  1  0
 10  9  1  0
 11 10  2  0
 12 10  1  0
 13 11  1  0
 14 12  2  0
 15 14  1  0
 15 13  2  0
 16 15  1  0
 17 16  2  3
 18 17  1  0
 19 17  1  0
 20 18  2  0
 21 19  2  0
 22 21  1  0
 22 20  1  0
 23 22  2  3
 24 23  1  0
 25 24  1  0
 26 25  2  0
 27 25  1  0
 28 27  1  0
 29 28  1  0
 30 29  1  0
 31 30  1  0
 30 32  1  6
 33 31  1  0
 34 33  1  0
 35 34  1  0
M  CHG  4   3  -1  16   1  23   1  32  -1
M  END
>  <SMILES>  (27) 
[CH2-]C(CCCC)CCOC(=O)C[O+]=C1C=CC(=[S+]c2ccc(Oc3c[c-]c(O)c(O)c3)nn2)C=C1

>  <scaffold>  (27) 
benzene

$$$$

     RDKit          3D

 22 23  0  0  0  0  0  0  0  0999 V2000
   -0.0000    0.0000    0.0000 C   0  0  0  0  0  0  0  0  0  0  0  0
   -0.0000    0.0000    1.3862 C   0  0  0  0  0  0  0  0  0  0  0  0
    1.2042    0.0000    2.0726 C   0  0  0  0  0  0  0  0  0  0  0  0
    1.1652    0.0000   -0.7508 C   0  0  0  0  0  0  0  0  0  0  0  0
    2.3972   -0.0000   -0.1155 C   0  0  0  0  0  0  0  0  0  0  0  0
    2.4640    0.0589    1.2678 C   0  0  0  0  0  0  0  0  0  0  0  0
   -1.2110   -0.0000   -0.6245 O   0  0  0  0  0  0  0  0  0  0  0  0
    3.5144   -0.0492   -0.8939 O   0  0  0  0  0  0  0  0  0  0  0  0
   -1.2607    0.0497   -2.0009 C   0  0  0  0  0  0  0  0  0  0  0  0
   -1.0129   -1.1180   -2.7365 C   0  0  0  0  0  0  0  0  0  0  0  0
   -1.6332    1.2131   -2.6728 C   0  0  0  0  0  0  0  0  0  0  0  0
   -1.1227   -1.0305   -4.1155 C   0  0  0  0  0  0  0  0  0  0  0  0
   -1.7448    1.2957   -4.0440 C   0  0  0  0  0  0  0  0  0  0  0  0
   -1.5105    0.1082   -4.7553 C   0  0  0  0  0  0  0  0  0  0  0  0
   -0.6636   -2.2976   -2.0977 N   0  0  0  0  0  0  0  0  0  0  0  0
   -1.5868    0.2579   -6.1313 O   0  0  0  0  0  0  0  0  0  0  0  0
   -2.0189   -0.7898   -6.8877 C   0  0  0  0  0  0  0  0  0  0  0  0
   -2.4063   -1.8573   -6.4752 O   0  0  0  0  0  0  0  0  0  0  0  0
   -1.9521   -0.4127   -8.1791 N   0  0  0  0  0  0  0  0  0  0  0  0
   -2.3069   -1.3757   -9.2168 C   0  0  0  0  0  0  0  0  0  0  0  0
   -3.4600   -0.8013  -10.0383 C   0  0  0  0  0  0  0  0  0  0  0  0
   -1.0890   -1.6506  -10.0974 C   0  0  0  0  0  0  0  0  0  0  0  0
  2  1  2  0
  3  2  1  0
  4  1  1  0
  5  4  2  0
  6  5  1  0
  6  3  2  0
  7  1  1  0
  8  5  1  0
  9  7  1  0
 10  9  2  0
 11  9  1  0
 12 10  1  0
 13 11  2  0
 14 13  1  0
 14 12  2  0
 15 10  1  0
 16 14  1  0
 17 16  1  0
 18 17  2  0
 19 17  1  0
 20 19  1  0
 21 20  1  0
 22 20  1  0
M  END
>  <SMILES>  (28) 
CC(C)NC(=O)Oc1ccc(Oc2cccc(O)c2)c(N)c1

>  <scaffold>  (28) 
benzene

$$$$

     RDKit          3D

 28 30  0  0  0  0  0  0  0  0999 V2000
   -0.0000    0.0000    0.0000 C   0  0  0  0  0  0  0  0  0  0  0  0
   -0.0000   -0.0000    1.4021 C   0  0  0  0  0  0  0  0  0  0  0  0
    1.2111   -0.0000    2.0925 C   0  0  0  0  0  0  0  0  0  0  0  0
    1.1990    0.0589   -0.6931 C   0  0  0  0  0  0  0  0  0  0  0  0
    2.4063    0.0589    0.0040 C   0  0  0  0  0  0  0  0  0  0  0  0
    2.4092   -0.0594    1.3931 C   0  0  0  0  0  0  0  0  0  0  0  0
   -1.1853   -0.0582   -0.6852 O   0  0  0  0  0  0  0  0  0  0  0  0
   -1.1323    0.0000    2.1318 O   0  0  0  0  0  0  0  0  0  0  0  0
    3.6163    0.2570   -0.7566 C   0  0  0  0  0  0  0  0  0  0  0  0
    3.6705    0.4341   -2.0299 N   0  0  0  0  0  0  0  0  0  0  0  0
    5.1500    0.3288    0.0684 S   0  0  0  0  0  0  0  0  0  0  0  0
    4.9315    0.6511   -2.4983 C   0  0  0  0  0  0  0  0  0  0  0  0
    5.8731    0.6254   -1.4895 C   0  0  0  0  0  0  0  0  0  0  0  0
    7.3427    0.8722   -1.5853 C   0  0  0  0  0  0  0  0  0  0  0  0
    7.6148    2.2832   -1.1199 C   0  0  0  0  0  0  0  0  0  0  0  0
    7.5896    2.6069    0.2276 C   0  0  0  0  0  0  0  0  0  0  0  0
    7.9134    3.3072   -2.0052 C   0  0  0  0  0  0  0  0  0  0  0  0
    7.7827    3.8889    0.6954 C   0  0  0  0  0  0  0  0  0  0  0  0
    8.1048    4.5821   -1.5407 C   0  0  0  0  0  0  0  0  0  0  0  0
    8.0146    4.9200   -0.2015 C   0  0  0  0  0  0  0  0  0  0  0  0
    8.2669    6.1915    0.1355 O   0  0  0  0  0  0  0  0  0  0  0  0
    8.2510    6.5879    1.5056 C   0  0  0  0  0  0  0  0  0  0  0  0
    6.8250    6.7304    2.0355 C   0  0  0  0  0  0  0  0  0  0  0  0
    6.0596    7.8354    1.3093 C   0  0  0  0  0  0  0  0  0  0  0  0
    4.6087    7.9819    1.7654 C   0  0  0  0  0  0  0  0  0  0  0  0
    3.9050    9.1335    1.0491 C   0  0  0  0  0  0  0  0  0  0  0  0
    2.4656    9.3570    1.5100 C   0  0  0  0  0  0  0  0  0  0  0  0
    1.8262   10.5515    0.8038 C   0  0  0  0  0  0  0  0  0  0  0  0
  2  1  2  0
  3  2  1  0
  4  1  1  0
  5  4  2  0
  6  5  1  0
  6  3  2  0
  7  1  1  0
  8  2  1  0
  9  5  1  0
 10  9  2  0
 11  9  1  0
 12 10  1  0
 13 12  2  0
 13 11  1  0
 14 13  1  0
 15 14  1  0
 16 15  2  0
 17 15  1  0
 18 16  1  0
 19 17  2  0
 20 19  1  0
 20 18  2  0
 21 20  1  0
 22 21  1  0
 23 22  1  0
 24 23  1  0
 25 24  1  0
 26 25  1  0
 27 26  1  0
 28 27  1  0
M  END
>  <SMILES>  (29) 
CCCCCCCOc1ccc(Cc2cnc(-c3ccc(O)c(O)c3)s2)cc1

>  <scaffold>  (29) 
benzene

$$$$

     RDKit          3D

 18 19  0  0  0  0  0  0  0  0999 V2000
    0.0000   -0.0000    0.0000 C   0  0  0  0  0  0  0  0  0  0  0  0
    0.0000    0.0000    1.3941 C   0  0  0  0  0  0  0  0  0  0  0  0
    1.2111    0.0000    2.0845 C   0  0  0  0  0  0  0  0  0  0  0  0
    1.1585    0.0000   -0.7465 C   0  0  0  0  0  0  0  0  0  0  0  0
    2.3237   -0.0000    0.0043 C   0  0  0  0  0  0  0  0  0  0  0  0
    2.4570   -0.0000    1.3840 C   0  0  0  0  0  0  0  0  0  0  0  0
   -1.2110    0.0000    2.0186 O   0  0  0  0  0  0  0  0  0  0  0  0
    3.7944    0.0647   -1.0203 S   0  0  0  0  0  6  0  0  0  0  0  0
    3.4930    0.0512   -2.4145 O   0  0  0  0  0  0  0  0  0  0  0  0
    4.6786   -0.8870   -0.4312 O   0  0  0  0  0  0  0  0  0  0  0  0
    4.3892    1.5868   -0.6553 N   0  0  0  0  0  0  0  0  0  0  0  0
   -1.2619    0.0509    3.4269 C   0  0  0  0  0  0  0  0  0  0  0  0
    3.5563    2.7008   -0.5602 C   0  0  0  0  0  0  0  0  0  0  0  0
    2.5754    2.8706   -1.5247 C   0  0  0  0  0  0  0  0  0  0  0  0
    3.7066    3.6448    0.4546 C   0  0  0  0  0  0  0  0  0  0  0  0
    1.6923    3.9359   -1.4436 C   0  0  0  0  0  0  0  0  0  0  0  0
    2.8284    4.7037    0.5368 C   0  0  0  0  0  0  0  0  0  0  0  0
    1.7420    4.8664   -0.4174 C   0  0  0  0  0  0  0  0  0  0  0  0
  2  1  2  0
  3  2  1  0
  4  1  1  0
  5  4  2  0
  6  5  1  0
  6  3  2  0
  7  2  1  0
  8  5  1  0
  9  8  2  0
 10  8  2  0
 11  8  1  0
 12  7  1  0
 13 11  1  0
 14 13  1  0
 15 13  2  0
 16 14  2  0
 17 15  1  0
 18 17  1  0
 18 16  1  0
M  END
>  <SMILES>  (30) 
COc1ccc(S(=O)(=O)NC2=CCCC=C2)cc1

>  <scaffold>  (30) 
benzene

$$$$

     RDKit          3D

 22 24  0  0  0  0  0  0  0  0999 V2000
   -0.0000    0.0000   -0.0000 C   0  0  0  0  0  0  0  0  0  0  0  0
    0.0000    0.0000    1.3862 C   0  0  0  0  0  0  0  0  0  0  0  0
    1.1996   -0.0000    2.0964 C   0  0  0  0  0  0  0  0  0  0  0  0
    1.1922    0.0586   -0.6891 C   0  0  0  0  0  0  0  0  0  0  0  0
    2.3559    0.1157    0.0617 C   0  0  0  0  0  0  0  0  0  0  0  0
    2.4217    0.1190    1.4463 C   0  0  0  0  0  0  0  0  0  0  0  0
   -1.5402    0.0000    2.1804 Cl  0  0  0  0  0  0  0  0  0  0  0  0
    3.6093    0.1235   -0.5114 O   0  0  0  0  0  0  0  0  0  0  0  0
    3.9397    0.4566   -1.7741 C   0  0  0  0  0  0  0  0  0  0  0  0
    3.0457    0.9003   -2.6558 N   0  0  0  0  0  0  0  0  0  0  0  0
    5.2905    0.3466   -2.1921 C   0  0  0  0  0  0  0  0  0  0  0  0
    3.4153    1.2527   -3.8448 N   0  0  0  0  0  0  0  0  0  0  0  0
    5.6860    0.7247   -3.4657 C   0  0  0  0  0  0  0  0  0  0  0  0
    4.6779    1.1916   -4.2391 C   0  0  0  0  0  0  0  0  0  0  0  0
    5.0256    1.7613   -5.8385 Cl  0  0  0  0  0  0  0  0  0  0  0  0
    6.1180   -0.1393   -1.2799 O   0  0  0  0  0  0  0  0  0  0  0  0
    7.4889   -0.2456   -1.5545 C   0  0  0  0  0  0  0  0  0  0  0  0
    8.0473   -1.5142   -1.5633 C   0  0  0  0  0  0  0  0  0  0  0  0
    8.2807    0.8733   -1.7606 C   0  0  0  0  0  0  0  0  0  0  0  0
    9.4079   -1.6647   -1.7808 C   0  0  0  0  0  0  0  0  0  0  0  0
    9.6486    0.7198   -1.9814 C   0  0  0  0  0  0  0  0  0  0  0  0
   10.1940   -0.5639   -2.0453 C   0  0  0  0  0  0  0  0  0  0  0  0
  2  1  2  0
  3  2  1  0
  4  1  1  0
  5  4  2  0
  6  5  1  0
  6  3  2  0
  7  2  1  0
  8  5  1  0
  9  8  1  0
 10  9  2  0
 11  9  1  0
 12 10  1  0
 13 11  2  0
 14 12  2  0
 14 13  1  0
 15 14  1  0
 16 11  1  0
 17 16  1  0
 18 17  2  0
 19 17  1  0
 20 18  1  0
 21 19  2  0
 22 21  1  0
 22 20  2  0
M  END
>  <SMILES>  (31) 
Clc1ccc(Oc2nnc(Cl)cc2Oc2ccccc2)cc1

>  <scaffold>  (31) 
benzene

$$$$

     RDKit          3D

 36 38  0  0  0  0  0  0  0  0999 V2000
   -0.0000    0.0000   -0.0000 C   0  0  0  0  0  0  0  0  0  0  0  0
    0.0000    0.0000    1.3862 C   0  0  0  0  0  0  0  0  0  0  0  0
    1.2042    0.0000    2.0726 C   0  0  0  0  0  0  0  0  0  0  0  0
    1.1585   -0.0000   -0.7465 C   0  0  0  0  0  0  0  0  0  0  0  0
    2.3976    0.0000   -0.1076 C   0  0  0  0  0  0  0  0  0  0  0  0
    2.3976    0.0000    1.2865 C   0  0  0  0  0  0  0  0  0  0  0  0
    3.5816    0.0497   -0.8114 N   0  0  0  0  0  0  0  0  0  0  0  0
    3.5811    0.0995   -2.1270 N   0  0  0  0  0  0  0  0  0  0  0  0
    4.7143    0.1917   -2.7451 C   0  0  0  0  0  0  0  0  0  0  0  0
    4.6652    0.1911   -4.1788 C   0  0  0  0  0  0  0  0  0  0  0  0
    3.5480    0.1033   -4.9401 C   0  0  0  0  0  0  0  0  0  0  0  0
    3.4516    0.0470   -6.3704 C   0  0  0  0  0  0  0  0  0  0  0  0
    2.2027   -0.0974   -6.9727 C   0  0  0  0  0  0  0  0  0  0  0  0
    4.6238    0.0826   -7.1535 C   0  0  0  0  0  0  0  0  0  0  0  0
    2.0658   -0.2057   -8.3399 C   0  0  0  0  0  0  0  0  0  0  0  0
    4.4860   -0.0225   -8.5050 C   0  0  0  0  0  0  0  0  0  0  0  0
    3.1732   -0.1748   -9.1730 C   0  0  0  0  0  0  0  0  0  0  0  0
    2.9673   -0.2424  -10.6505 C   0  0  0  0  0  0  0  0  0  0  0  0
    2.8814    1.1637  -11.2421 C   0  0  0  0  0  0  0  0  0  0  0  0
    2.7669    2.1879  -10.6116 O   0  0  0  0  0  0  0  0  0  0  0  0
    2.8942    1.1570  -12.5968 N   0  0  0  0  0  0  0  0  0  0  0  0
    2.8813    2.3568  -13.4130 C   0  0  0  0  0  0  0  0  0  0  0  0
    3.9405    2.3146  -14.4526 C   0  0  0  0  0  0  0  0  0  0  0  0
    5.2587    2.6075  -14.3438 C   0  0  0  0  0  0  0  0  0  0  0  0
    3.6096    1.8751  -15.6992 O   0  0  0  0  0  0  0  0  0  0  0  0
    5.7488    2.3279  -15.6450 C   0  0  0  0  0  0  0  0  0  0  0  0
    4.7340    1.8818  -16.4268 C   0  0  0  0  0  0  0  0  0  0  0  0
    4.6599    1.5384  -17.7113 O   0  0  0  0  0  0  0  0  0  0  0  0
    5.7779    1.4536  -18.5666 C   0  0  0  0  0  0  0  0  0  0  0  0
    6.5892    0.1920  -18.2760 C   0  0  0  0  0  0  0  0  0  0  0  0
    7.8145    0.1756  -19.1886 C   0  0  0  0  0  0  0  0  0  0  0  0
    8.6326   -1.0970  -18.9750 C   0  0  0  0  0  0  0  0  0  0  0  0
    9.8709   -1.0390  -19.8681 C   0  0  0  0  0  0  0  0  0  0  0  0
   10.6228   -2.3524  -19.6585 C   0  0  0  0  0  0  0  0  0  0  0  0
   11.9031   -2.3216  -20.4918 C   0  0  0  0  0  0  0  0  0  0  0  0
   12.7207   -3.5939  -20.2744 C   0  0  0  0  0  0  0  0  0  0  0  0
  2  1  1  0
  3  2  1  0
  4  1  2  0
  5  4  1  0
  6  5  1  0
  6  3  2  0
  7  5  2  0
  8  7  1  0
  9  8  2  0
 10  9  1  0
 11 10  2  0
 12 11  1  0
 13 12  2  0
 14 12  1  0
 15 13  1  0
 16 14  2  0
 17 16  1  0
 17 15  2  0
 18 17  1  0
 19 18  1  0
 20 19  2  0
 21 19  1  0
 22 21  1  0
 23 22  1  0
 24 23  2  0
 25 23  1  0
 26 24  1  0
 27 25  1  0
 27 26  2  0
 28 27  1  0
 29 28  1  0
 30 29  1  0
 31 30  1  0
 32 31  1  0
 33 32  1  0
 34 33  1  0
 35 34  1  0
 36 35  1  0
M  END
>  <SMILES>  (32) 
CCCCCCCCOc1ccc(CNC(=O)Cc2ccc(C=CC=NN=C3C=CCC=C3)cc2)o1

>  <scaffold>  (32) 
benzene

$$$$

     RDKit          3D

 23 25  0  0  0  0  0  0  0  0999 V2000
   -0.0000    0.0000   -0.0000 C   0  0  0  0  0  0  0  0  0  0  0  0
    0.0000   -0.0000    1.3862 C   0  0  0  0  0  0  0  0  0  0  0  0
    1.1928   -0.0000    2.0924 C   0  0  0  0  0  0  0  0  0  0  0  0
    1.2320   -0.0000   -0.6353 C   0  0  0  0  0  0  0  0  0  0  0  0
    2.3905    0.0000    0.1112 C   0  0  0  0  0  0  0  0  0  0  0  0
    2.3905    0.0000    1.5133 C   0  0  0  0  0  0  0  0  0  0  0  0
    3.5677    0.0494    2.2131 N   0  0  0  0  0  0  0  0  0  0  0  0
    3.6959    0.0025    3.5455 N   0  0  0  0  0  0  0  0  0  0  0  0
    4.8471    0.1066    4.0940 C   0  0  0  0  0  0  0  0  0  0  0  0
    5.0390    0.0121    5.4960 C   0  0  0  0  0  0  0  0  0  0  0  0
    6.1535    0.1476    6.2542 C   0  0  0  0  0  0  0  0  0  0  0  0
    3.6522   -0.3261    6.4611 S   0  0  0  0  0  0  0  0  0  0  0  0
    6.0056   -0.0641    7.6324 C   0  0  0  0  0  0  0  0  0  0  0  0
    4.7051   -0.3334    7.8500 C   0  0  0  0  0  0  0  0  0  0  0  0
    4.1582   -0.6479    9.2130 C   0  0  0  0  0  0  0  0  0  0  0  0
    2.8162   -1.2829    9.2178 C   0  0  0  0  0  0  0  0  0  0  0  0
    2.7774   -2.6196    8.9564 O   0  0  0  0  0  0  0  0  0  0  0  0
    1.5766   -0.7324    9.3480 C   0  0  0  0  0  0  0  0  0  0  0  0
    1.4607   -2.9383    8.9666 C   0  0  0  0  0  0  0  0  0  0  0  0
    0.6429   -1.7824    9.2285 C   0  0  0  0  0  0  0  0  0  0  0  0
    1.1275   -4.3707    8.7627 C   0  0  0  0  0  0  0  0  0  0  0  0
    1.4625   -5.1735   10.0188 C   0  0  0  0  0  0  0  0  0  0  0  0
    0.8859   -5.0323   11.0631 O   0  0  0  0  0  0  0  0  0  0  0  0
  2  1  2  0
  3  2  1  0
  4  1  1  0
  5  4  2  0
  6  5  1  0
  6  3  2  0
  7  6  1  0
  8  7  1  0
  9  8  2  0
 10  9  1  0
 11 10  2  0
 12 10  1  0
 13 11  1  0
 14 12  1  0
 14 13  2  0
 15 14  1  0
 16 15  1  0
 17 16  1  0
 18 16  2  0
 19 17  1  0
 20 19  2  0
 20 18  1  0
 21 19  1  0
 22 21  1  0
 23 22  2  0
M  END
>  <SMILES>  (33) 
O=CCc1ccc(Cc2ccc(C=NNc3ccccc3)s2)o1

>  <scaffold>  (33) 
benzene

$$$$

     RDKit          3D

 26 27  0  0  0  0  0  0  0  0999 V2000
    0.0000    0.0000   -0.0000 C   0  0  0  0  0  0  0  0  0  0  0  0
    0.0000    0.0000    1.3862 C   0  0  0  0  0  0  0  0  0  0  0  0
    1.2111   -0.0000    2.0766 C   0  0  0  0  0  0  0  0  0  0  0  0
    1.1990    0.0589   -0.6931 C   0  0  0  0  0  0  0  0  0  0  0  0
    2.4295    0.1194   -0.0578 C   0  0  0  0  0  0  0  0  0  0  0  0
    2.3616    0.1160    1.3347 C   0  0  0  0  0  0  0  0  0  0  0  0
    3.7288    0.2365   -0.7488 C   0  0  0  0  0  0  0  0  0  0  0  0
    4.7795    0.7510   -0.1127 N   0  0  0  0  0  0  0  0  0  0  0  0
    3.8417   -0.1976   -2.0604 C   0  0  0  0  0  0  0  0  0  0  0  0
    5.9880    0.8571   -0.6044 C   0  0  0  0  0  0  0  0  0  0  0  0
    5.1068   -0.0861   -2.5751 C   0  0  0  0  0  0  0  0  0  0  0  0
    6.1918    0.3924   -1.9029 C   0  0  0  0  0  0  0  0  0  0  0  0
    1.0828    0.0531    3.4320 O   0  0  0  0  0  0  0  0  0  0  0  0
    7.4083    0.4007   -2.4991 O   0  0  0  0  0  0  0  0  0  0  0  0
    8.5933    0.9915   -1.9469 C   0  0  2  0  0  0  0  0  0  0  0  0
    2.2822    0.1061    4.1718 C   0  0  0  0  0  0  0  0  0  0  0  0
    8.5308    2.5143   -2.0534 C   0  0  0  0  0  0  0  0  0  0  0  0
    9.8191    0.4816   -2.7031 C   0  0  0  0  0  0  0  0  0  0  0  0
   11.1500    1.0809   -2.2517 C   0  0  0  0  0  0  0  0  0  0  0  0
   12.3361    0.5800   -3.0744 C   0  0  0  0  0  0  0  0  0  0  0  0
   13.6983    1.1080   -2.6273 C   0  0  0  0  0  0  0  0  0  0  0  0
   14.8430    0.6213   -3.5146 C   0  0  0  0  0  0  0  0  0  0  0  0
   16.2340    1.0775   -3.0771 C   0  0  0  0  0  0  0  0  0  0  0  0
   17.3653    0.5103   -3.9796 C   0  0  1  0  0  0  0  0  0  0  0  0
   17.2606   -0.8951   -4.0279 O   0  0  0  0  0  0  0  0  0  0  0  0
   17.3822    1.1495   -5.3672 C   0  0  0  0  0  0  0  0  0  0  0  0
  2  1  2  0
  3  2  1  0
  4  1  1  0
  5  4  2  0
  6  5  1  0
  6  3  2  0
  7  5  1  0
  8  7  2  0
  9  7  1  0
 10  8  1  0
 11  9  2  0
 12 11  1  0
 12 10  2  0
 13  3  1  0
 14 12  1  0
 15 14  1  0
 16 13  1  0
 15 17  1  6
 18 15  1  0
 19 18  1  0
 20 19  1  0
 21 20  1  0
 22 21  1  0
 23 22  1  0
 24 23  1  0
 25 24  1  0
 24 26  1  6
M  END
>  <SMILES>  (34) 
COc1cccc(-c2ccc(OC(C)CCCCCCC(C)O)cn2)c1

>  <scaffold>  (34) 
benzene

$$$$

     RDKit          3D

 22 24  0  0  0  0  0  0  0  0999 V2000
   -0.0000   -0.0000   -0.0000 C   0  0  0  0  0  0  0  0  0  0  0  0
    0.0000    0.0000    1.3862 C   0  0  0  0  0  0  0  0  0  0  0  0
    1.2042   -0.0000    2.0726 C   0  0  0  0  0  0  0  0  0  0  0  0
    1.1585   -0.0000   -0.7465 C   0  0  0  0  0  0  0  0  0  0  0  0
    2.3976    0.0000   -0.1076 C   0  0  0  0  0  0  0  0  0  0  0  0
    2.3976    0.0000    1.2865 C   0  0  0  0  0  0  0  0  0  0  0  0
    3.5807    0.0520   -0.9318 C   0  0  0  0  0  0  0  0  0  0  0  0
    4.7935    0.1081   -0.4426 N   0  0  0  0  0  0  0  0  0  0  0  0
    3.5802    0.1014   -2.2935 N   0  0  0  0  0  0  0  0  0  0  0  0
    5.5748    0.0873   -1.5683 O   0  0  0  0  0  0  0  0  0  0  0  0
    4.8476    0.0855   -2.6206 C   0  0  0  0  0  0  0  0  0  0  0  0
    5.4099    0.0647   -3.9225 C   0  0  0  0  0  0  0  0  0  0  0  0
    4.6543    0.1214   -5.0456 C   0  0  0  0  0  0  0  0  0  0  0  0
    5.1402    0.0561   -6.3002 N   0  0  0  0  0  0  0  0  0  0  0  0
    4.4840    0.1561   -7.5171 C   0  0  0  0  0  0  0  0  0  0  0  0
    5.2402    0.1071   -8.6872 C   0  0  0  0  0  0  0  0  0  0  0  0
    3.1084    0.3558   -7.6237 C   0  0  0  0  0  0  0  0  0  0  0  0
    4.6373    0.2519   -9.9181 C   0  0  0  0  0  0  0  0  0  0  0  0
    2.5071    0.4981   -8.8557 C   0  0  0  0  0  0  0  0  0  0  0  0
    3.2641    0.4513  -10.0526 C   0  0  0  0  0  0  0  0  0  0  0  0
    2.7285    0.6346  -11.2665 F   0  0  0  0  0  0  0  0  0  0  0  0
    0.7740    0.8173   -9.0518 S   0  0  0  0  0  0  0  0  0  0  0  0
  2  1  2  0
  3  2  1  0
  4  1  1  0
  5  4  2  0
  6  5  1  0
  6  3  2  0
  7  5  1  0
  8  7  1  0
  9  7  2  0
 10  8  2  0
 11  9  1  0
 11 10  1  0
 12 11  2  0
 13 12  1  0
 14 13  2  0
 15 14  1  0
 16 15  1  0
 17 15  2  0
 18 16  2  0
 19 17  1  0
 20 19  1  0
 20 18  1  0
 21 20  1  0
 22 19  2  0
M  CHG  2  10   1  20  -1
M  END
>  <SMILES>  (35) 
F[c-]1ccc(N=CC=C2N=C(c3ccccc3)N=[O+]2)cc1=S

>  <scaffold>  (35) 
benzene

$$$$

     RDKit          3D

 18 19  0  0  0  0  0  0  0  0999 V2000
   -0.0000    0.0000    0.0000 C   0  0  0  0  0  0  0  0  0  0  0  0
   -0.0000   -0.0000    1.3862 C   0  0  0  0  0  0  0  0  0  0  0  0
    1.2042   -0.0000    2.0726 C   0  0  0  0  0  0  0  0  0  0  0  0
    1.1585    0.0000   -0.7465 C   0  0  0  0  0  0  0  0  0  0  0  0
    2.3976    0.0000   -0.1076 C   0  0  0  0  0  0  0  0  0  0  0  0
    2.3976    0.0000    1.2865 C   0  0  0  0  0  0  0  0  0  0  0  0
    3.5952    0.0503   -0.8195 N   0  0  0  0  0  0  0  0  0  0  0  0
    3.8334    0.2331   -2.1485 C   0  0  0  0  0  0  0  0  0  0  0  0
    2.9860    0.2216   -2.9902 O   0  0  0  0  0  0  0  0  0  0  0  0
    5.1591    0.3687   -2.3926 O   0  0  0  0  0  0  0  0  0  0  0  0
    5.6190    0.7225   -3.6690 C   0  0  0  0  0  0  0  0  0  0  0  0
    5.1006    1.8322   -4.2835 C   0  0  0  0  0  0  0  0  0  0  0  0
    6.6587   -0.0284   -4.2359 C   0  0  0  0  0  0  0  0  0  0  0  0
    5.6244    2.1723   -5.5300 C   0  0  0  0  0  0  0  0  0  0  0  0
    7.1707    0.3087   -5.4527 C   0  0  0  0  0  0  0  0  0  0  0  0
    6.6781    1.4673   -6.1287 C   0  0  0  0  0  0  0  0  0  0  0  0
    5.1191    3.2963   -6.0739 N   0  0  0  0  0  0  0  0  0  0  0  0
    7.2636    1.7976   -7.3409 N   0  0  0  0  0  0  0  0  0  0  0  0
  2  1  2  0
  3  2  1  0
  4  1  1  0
  5  4  2  0
  6  5  1  0
  6  3  2  0
  7  5  1  0
  8  7  1  0
  9  8  2  0
 10  8  1  0
 11 10  1  0
 12 11  2  0
 13 11  1  0
 14 12  1  0
 15 13  2  0
 16 14  2  0
 16 15  1  0
 17 14  1  0
 18 16  1  0
M  END
>  <SMILES>  (36) 
Nc1ccc(OC(=O)Nc2ccccc2)cc1N

>  <scaffold>  (36) 
benzene

$$$$

     RDKit          3D

 16 17  0  0  0  0  0  0  0  0999 V2000
    0.0000    0.0000    0.0000 C   0  0  0  0  0  0  0  0  0  0  0  0
   -0.0000    0.0000    1.3704 C   0  0  0  0  0  0  0  0  0  0  0  0
    1.2181    0.0000    2.0648 C   0  0  0  0  0  0  0  0  0  0  0  0
    1.2059   -0.0592   -0.6971 C   0  0  0  0  0  0  0  0  0  0  0  0
    2.4364   -0.1197   -0.0617 C   0  0  0  0  0  0  0  0  0  0  0  0
    2.4386   -0.0591    1.3634 C   0  0  0  0  0  0  0  0  0  0  0  0
    3.6142   -0.0659    2.0210 N   0  0  0  0  0  0  0  0  0  0  0  0
    3.6634    0.0325    3.2883 C   0  0  0  0  0  0  0  0  0  0  0  0
    2.4635    0.1559    4.0800 C   0  0  0  0  0  0  0  0  0  0  0  0
    1.2706    0.2229    3.4412 C   0  0  0  0  0  0  0  0  0  0  0  0
    3.9075   -0.2549   -0.9865 Cl  0  0  0  0  0  0  0  0  0  0  0  0
    4.8900    0.0659    3.8251 O   0  0  0  0  0  0  0  0  0  0  0  0
    6.0202   -0.0672    2.9515 C   0  0  0  0  0  0  0  0  0  0  0  0
    6.2475   -1.5159    2.5224 C   0  0  0  0  0  0  0  0  0  0  0  0
    7.5209   -1.7360    1.7074 C   0  0  0  0  0  0  0  0  0  0  0  0
    7.5429   -1.0002    0.3686 C   0  0  0  0  0  0  0  0  0  0  0  0
  2  1  2  0
  3  2  1  0
  4  1  1  0
  5  4  2  0
  6  5  1  0
  6  3  2  0
  7  6  1  0
  8  7  2  0
  9  8  1  0
 10  9  2  0
 10  3  1  0
 11  5  1  0
 12  8  1  0
 13 12  1  0
 14 13  1  0
 15 14  1  0
 16 15  1  0
M  END
>  <SMILES>  (37) 
CCCCOc1ccc2cccc(Cl)c2n1

>  <scaffold>  (37) 
benzene

$$$$

     RDKit          3D

 23 24  0  0  0  0  0  0  0  0999 V2000
    0.0000   -0.0000    0.0000 C   0  0  0  0  0  0  0  0  0  0  0  0
   -0.0000   -0.0000    1.3862 C   0  0  0  0  0  0  0  0  0  0  0  0
    1.2042   -0.0000    2.0726 C   0  0  0  0  0  0  0  0  0  0  0  0
    1.1652   -0.0000   -0.7508 C   0  0  0  0  0  0  0  0  0  0  0  0
    2.4043   -0.0000   -0.1119 C   0  0  0  0  0  0  0  0  0  0  0  0
    2.4043    0.0000    1.2822 C   0  0  0  0  0  0  0  0  0  0  0  0
    3.6341    0.0541   -0.7491 N   0  0  0  0  0  0  0  0  0  0  0  0
    3.9898    0.1174   -2.0547 C   0  0  0  0  0  0  0  0  0  0  0  0
    5.3064    0.2089   -2.2829 N   0  0  0  0  0  0  0  0  0  0  0  0
    3.0475    0.1377   -3.0171 N   0  0  0  0  0  0  0  0  0  0  0  0
    5.7586    0.3260   -3.4898 N   0  0  0  0  0  0  0  0  0  0  0  0
    3.5073    0.2508   -4.2375 C   0  0  0  0  0  0  0  0  0  0  0  0
    4.9205    0.2991   -4.4949 C   0  0  0  0  0  0  0  0  0  0  0  0
    5.5846    0.5250   -6.1014 Cl  0  0  0  0  0  0  0  0  0  0  0  0
    2.5058    0.3103   -5.0783 O   0  0  0  0  0  0  0  0  0  0  0  0
    2.7716    0.2752   -6.4710 C   0  0  0  0  0  0  0  0  0  0  0  0
    3.0940   -1.1377   -6.9551 C   0  0  0  0  0  0  0  0  0  0  0  0
    3.2483   -1.2571   -8.4705 C   0  0  2  0  0  0  0  0  0  0  0  0
    3.5155   -2.6968   -8.9065 C   0  0  0  0  0  0  0  0  0  0  0  0
    4.4269   -0.4036   -8.9639 C   0  0  0  0  0  0  0  0  0  0  0  0
    4.7652   -0.6593  -10.4318 C   0  0  0  0  0  0  0  0  0  0  0  0
    5.9752    0.1712  -10.8568 C   0  0  0  0  0  0  0  0  0  0  0  0
    6.3886   -0.0899  -12.3043 C   0  0  0  0  0  0  0  0  0  0  0  0
  2  1  2  0
  3  2  1  0
  4  1  1  0
  5  4  2  0
  6  5  1  0
  6  3  2  0
  7  5  1  0
  8  7  1  0
  9  8  2  0
 10  8  1  0
 11  9  1  0
 12 10  2  0
 13 12  1  0
 13 11  2  0
 14 13  1  0
 15 12  1  0
 16 15  1  0
 17 16  1  0
 18 17  1  0
 18 19  1  1
 20 18  1  0
 21 20  1  0
 22 21  1  0
 23 22  1  0
M  END
>  <SMILES>  (38) 
CCCCC(C)CCOc1nc(Nc2ccccc2)nnc1Cl

>  <scaffold>  (38) 
benzene

$$$$

     RDKit          3D

 31 34  0  0  0  0  0  0  0  0999 V2000
    0.0000   -0.0000   -0.0000 C   0  0  0  0  0  0  0  0  0  0  0  0
   -0.0000   -0.0000    1.3862 C   0  0  0  0  0  0  0  0  0  0  0  0
    1.1928    0.0000    2.0924 C   0  0  0  0  0  0  0  0  0  0  0  0
    1.2320    0.0000   -0.6353 C   0  0  0  0  0  0  0  0  0  0  0  0
    2.3972    0.0000    0.1155 C   0  0  0  0  0  0  0  0  0  0  0  0
    2.3972    0.0000    1.5017 C   0  0  0  0  0  0  0  0  0  0  0  0
   -1.2991   -0.0638   -0.7509 C   0  0  0  0  0  0  0  0  0  0  0  0
   -1.8525   -1.3998   -0.6300 N   0  0  0  0  0  0  0  0  0  0  0  0
   -2.9358   -1.6183    0.1402 C   0  0  0  0  0  0  0  0  0  0  0  0
   -3.6171   -0.7374    0.6436 O   0  0  0  0  0  0  0  0  0  0  0  0
   -3.2827   -3.0368    0.2884 C   0  0  0  0  0  0  0  0  0  0  0  0
   -2.7495   -4.2445   -0.1078 C   0  0  0  0  0  0  0  0  0  0  0  0
   -4.4075   -3.3045    1.0239 N   0  0  0  0  0  0  0  0  0  0  0  0
   -3.5242   -5.3006    0.3927 C   0  0  0  0  0  0  0  0  0  0  0  0
   -4.5342   -4.6438    1.0937 C   0  0  0  0  0  0  0  0  0  0  0  0
   -3.3468   -6.6563    0.3008 O   0  0  0  0  0  0  0  0  0  0  0  0
   -3.3188   -7.2066   -0.9798 C   0  0  0  0  0  0  0  0  0  0  0  0
   -3.8656   -6.6178   -2.1092 C   0  0  0  0  0  0  0  0  0  0  0  0
   -2.7368   -8.4550   -1.0281 C   0  0  0  0  0  0  0  0  0  0  0  0
   -3.8204   -7.2869   -3.3133 C   0  0  0  0  0  0  0  0  0  0  0  0
   -2.6986   -9.1249   -2.2320 C   0  0  0  0  0  0  0  0  0  0  0  0
   -3.2859   -8.5637   -3.3872 C   0  0  0  0  0  0  0  0  0  0  0  0
   -3.1906   -9.4091   -5.0974 Br  0  0  0  0  0  0  0  0  0  0  0  0
   -2.0183  -10.4350   -2.2425 C   0  0  0  0  0  0  0  0  0  0  0  0
   -2.3736  -11.4445   -1.3616 C   0  0  0  0  0  0  0  0  0  0  0  0
   -1.0453  -10.6746   -3.2003 C   0  0  0  0  0  0  0  0  0  0  0  0
   -1.7278  -12.6785   -1.3005 C   0  0  0  0  0  0  0  0  0  0  0  0
   -0.3998  -11.8998   -3.1399 C   0  0  0  0  0  0  0  0  0  0  0  0
   -0.7105  -12.8904   -2.2299 C   0  0  0  0  0  0  0  0  0  0  0  0
   -2.0111  -13.6857   -0.4155 O   0  0  0  0  0  0  0  0  0  0  0  0
   -2.9610  -13.4030    0.5876 C   0  0  0  0  0  0  0  0  0  0  0  0
  2  1  2  0
  3  2  1  0
  4  1  1  0
  5  4  2  0
  6  5  1  0
  6  3  2  0
  7  1  1  0
  8  7  1  0
  9  8  1  0
 10  9  2  0
 11  9  1  0
 12 11  2  0
 13 11  1  0
 14 12  1  0
 15 14  2  0
 15 13  1  0
 16 14  1  0
 17 16  1  0
 18 17  2  0
 19 17  1  0
 20 18  1  0
 21 19  2  0
 22 21  1  0
 22 20  2  0
 23 22  1  0
 24 21  1  0
 25 24  2  0
 26 24  1  0
 27 25  1  0
 28 26  2  0
 29 28  1  0
 29 27  2  0
 30 27  1  0
 31 30  1  0
M  END
>  <SMILES>  (39) 
COc1cccc(-c2cc(Oc3c[nH]c(C(=O)NCc4ccccc4)c3)ccc2Br)c1

>  <scaffold>  (39) 
benzene

$$$$

     RDKit          3D

 31 34  0  0  0  0  0  0  0  0999 V2000
   -0.0000   -0.0000    0.0000 C   0  0  0  0  0  0  0  0  0  0  0  0
   -0.0000    0.0000    1.3941 C   0  0  0  0  0  0  0  0  0  0  0  0
    1.2042   -0.0000    2.0806 C   0  0  0  0  0  0  0  0  0  0  0  0
    1.1990    0.0589   -0.6931 C   0  0  0  0  0  0  0  0  0  0  0  0
    2.3994    0.0589    0.0000 C   0  0  0  0  0  0  0  0  0  0  0  0
    2.3994    0.0589    1.3862 C   0  0  0  0  0  0  0  0  0  0  0  0
   -1.2128   -0.0596   -0.7011 N   0  0  0  0  0  0  0  0  0  0  0  0
   -1.4455   -0.6300   -1.9339 C   0  0  0  0  0  0  0  0  0  0  0  0
   -2.3794    0.4236   -0.2546 C   0  0  0  0  0  0  0  0  0  0  0  0
   -2.7606   -0.3711   -2.1789 C   0  0  0  0  0  0  0  0  0  0  0  0
   -3.3088    0.2629   -1.1515 N   0  0  0  0  0  0  0  0  0  0  0  0
   -3.4928   -0.7665   -3.2381 O   0  0  0  0  0  0  0  0  0  0  0  0
   -4.8427   -0.3070   -3.2741 C   0  0  0  0  0  0  0  0  0  0  0  0
   -5.4768   -0.4580   -4.6272 C   0  0  0  0  0  0  0  0  0  0  0  0
   -4.7171   -0.2884   -5.7742 C   0  0  0  0  0  0  0  0  0  0  0  0
   -6.8415   -0.7132   -4.7530 C   0  0  0  0  0  0  0  0  0  0  0  0
   -5.3567   -0.3888   -6.9998 C   0  0  0  0  0  0  0  0  0  0  0  0
   -7.4758   -0.8103   -5.9727 C   0  0  0  0  0  0  0  0  0  0  0  0
   -6.7243   -0.5923   -7.0981 C   0  0  0  0  0  0  0  0  0  0  0  0
   -7.5916   -0.6643   -8.6082 Cl  0  0  0  0  0  0  0  0  0  0  0  0
   -8.9336   -1.0296   -6.0518 C   0  0  0  0  0  0  0  0  0  0  0  0
   -9.7812   -0.1321   -5.4215 C   0  0  0  0  0  0  0  0  0  0  0  0
   -9.4658   -2.0682   -6.7997 C   0  0  0  0  0  0  0  0  0  0  0  0
  -11.1269   -0.3489   -5.5631 C   0  0  0  0  0  0  0  0  0  0  0  0
  -10.8152   -2.3417   -6.8635 C   0  0  0  0  0  0  0  0  0  0  0  0
  -11.7132   -1.3817   -6.2779 C   0  0  0  0  0  0  0  0  0  0  0  0
  -13.0323   -1.6630   -6.4052 O   0  0  0  0  0  0  0  0  0  0  0  0
  -13.8981   -0.7781   -5.7132 C   0  0  0  0  0  0  0  0  0  0  0  0
  -15.2897   -1.2915   -6.0793 C   0  0  0  0  0  0  0  0  0  0  0  0
  -15.6413   -1.0580   -7.4164 O   0  0  0  0  0  0  0  0  0  0  0  0
  -16.1032    0.2448   -7.7340 C   0  0  0  0  0  0  0  0  0  0  0  0
  2  1  2  0
  3  2  1  0
  4  1  1  0
  5  4  2  0
  6  5  1  0
  6  3  2  0
  7  1  1  0
  8  7  1  0
  9  7  1  0
 10  8  2  0
 11 10  1  0
 11  9  2  0
 12 10  1  0
 13 12  1  0
 14 13  1  0
 15 14  2  0
 16 14  1  0
 17 15  1  0
 18 16  2  0
 19 18  1  0
 19 17  2  0
 20 19  1  0
 21 18  1  0
 22 21  2  0
 23 21  1  0
 24 22  1  0
 25 23  2  0
 26 24  2  0
 26 25  1  0
 27 26  1  0
 28 27  1  0
 29 28  1  0
 30 29  1  0
 31 30  1  0
M  END
>  <SMILES>  (40) 
COCCOc1ccc(-c2cc(COc3cn(-c4ccccc4)cn3)ccc2Cl)cc1

>  <scaffold>  (40) 
benzene

$$$$

     RDKit          3D

 26 28  0  0  0  0  0  0  0  0999 V2000
    0.0000    0.0000   -0.0000 C   0  0  0  0  0  0  0  0  0  0  0  0
   -0.0000   -0.0000    1.3862 C   0  0  0  0  0  0  0  0  0  0  0  0
    1.2042    0.0000    2.0726 C   0  0  0  0  0  0  0  0  0  0  0  0
    1.1652    0.0000   -0.7508 C   0  0  0  0  0  0  0  0  0  0  0  0
    2.3972    0.0000   -0.1155 C   0  0  0  0  0  0  0  0  0  0  0  0
    2.3972   -0.0000    1.2786 C   0  0  0  0  0  0  0  0  0  0  0  0
    3.5992   -0.0528   -0.7383 O   0  0  0  0  0  0  0  0  0  0  0  0
    3.7224    0.1417   -2.1377 C   0  0  0  0  0  0  0  0  0  0  0  0
    3.5962    1.6190   -2.5068 C   0  0  0  0  0  0  0  0  0  0  0  0
    4.0124    1.9689   -4.2594 S   0  0  0  0  0  0  0  0  0  0  0  0
    2.4948    2.5869   -4.9368 C   0  0  0  0  0  0  0  0  0  0  0  0
    2.5186    3.6301   -5.8613 C   0  0  0  0  0  0  0  0  0  0  0  0
    1.2497    2.0357   -4.6773 C   0  0  0  0  0  0  0  0  0  0  0  0
    1.3822    4.1044   -6.4446 C   0  0  0  0  0  0  0  0  0  0  0  0
    0.1150    2.5153   -5.2596 C   0  0  0  0  0  0  0  0  0  0  0  0
    0.1322    3.5521   -6.1309 C   0  0  0  0  0  0  0  0  0  0  0  0
   -0.9521    4.0179   -6.7643 N   0  0  0  0  0  0  0  0  0  0  0  0
   -2.3310    3.6232   -6.5438 C   0  0  0  0  0  0  0  0  0  0  0  0
   -3.1742    4.3996   -7.5540 C   0  0  0  0  0  0  0  0  0  0  0  0
   -2.6742    3.9042   -5.0725 C   0  0  0  0  0  0  0  0  0  0  0  0
   -2.4362    2.1199   -6.7961 C   0  0  0  0  0  0  0  0  0  0  0  0
   -1.7954    1.4439   -7.8441 C   0  0  0  0  0  0  0  0  0  0  0  0
   -3.3466    1.4283   -5.9984 C   0  0  0  0  0  0  0  0  0  0  0  0
   -1.9597    0.0928   -8.0611 C   0  0  0  0  0  0  0  0  0  0  0  0
   -3.5134    0.0631   -6.2263 C   0  0  0  0  0  0  0  0  0  0  0  0
   -2.7812   -0.6543   -7.2315 C   0  0  0  0  0  0  0  0  0  0  0  0
  2  1  2  0
  3  2  1  0
  4  1  1  0
  5  4  2  0
  6  5  1  0
  6  3  2  0
  7  5  1  0
  8  7  1  0
  9  8  1  0
 10  9  1  0
 11 10  1  0
 12 11  2  0
 13 11  1  0
 14 12  1  0
 15 13  2  0
 16 14  2  0
 16 15  1  0
 17 16  1  0
 18 17  1  0
 19 18  1  0
 20 18  1  0
 21 18  1  0
 22 21  2  0
 23 21  1  0
 24 22  1  0
 25 23  2  0
 26 25  1  0
 26 24  2  0
M  END
>  <SMILES>  (41) 
CC(C)(Nc1ccc(SCCOc2ccccc2)cc1)c1ccccc1

>  <scaffold>  (41) 
benzene

$$$$

     RDKit          3D

 27 29  0  0  0  0  0  0  0  0999 V2000
   -0.0000   -0.0000    0.0000 C   0  0  0  0  0  0  0  0  0  0  0  0
    0.0000   -0.0000    1.3862 C   0  0  0  0  0  0  0  0  0  0  0  0
    1.2042    0.0000    2.0726 C   0  0  0  0  0  0  0  0  0  0  0  0
    1.1652    0.0000   -0.7508 C   0  0  0  0  0  0  0  0  0  0  0  0
    2.3972    0.0000   -0.1155 C   0  0  0  0  0  0  0  0  0  0  0  0
    2.3972    0.0000    1.2706 C   0  0  0  0  0  0  0  0  0  0  0  0
    3.6947    0.0545   -0.8868 C   0  0  0  0  0  0  0  0  0  0  0  0
    3.5831   -0.4230   -2.2176 O   0  0  0  0  0  0  0  0  0  0  0  0
    3.5098   -1.7559   -2.3258 C   0  0  0  0  0  0  0  0  0  0  0  0
    3.3576   -2.1584   -3.5942 N   0  0  0  0  0  0  0  0  0  0  0  0
    3.5389   -2.5519   -1.2870 N   0  0  0  0  0  0  0  0  0  0  0  0
    3.3249   -3.4388   -3.8255 C   0  0  0  0  0  0  0  0  0  0  0  0
    3.5104   -3.9045   -1.4491 C   0  0  0  0  0  0  0  0  0  0  0  0
    3.4392   -4.4515   -2.8275 C   0  0  0  0  0  0  0  0  0  0  0  0
    3.5907   -4.8021   -0.3644 C   0  0  0  0  0  0  0  0  0  0  0  0
    3.4602   -5.8463   -3.0342 C   0  0  0  0  0  0  0  0  0  0  0  0
    3.6151   -6.1593   -0.4817 C   0  0  0  0  0  0  0  0  0  0  0  0
    3.5212   -6.7198   -1.9903 C   0  0  0  0  0  0  0  0  0  0  0  0
    3.1245   -3.7924   -5.0937 O   0  0  0  0  0  0  0  0  0  0  0  0
    2.9591   -2.8227   -6.1153 C   0  0  0  0  0  0  0  0  0  0  0  0
    1.5659   -2.1972   -6.0696 C   0  0  0  0  0  0  0  0  0  0  0  0
    0.4483   -3.2241   -6.2448 C   0  0  0  0  0  0  0  0  0  0  0  0
   -0.9221   -2.5573   -6.1371 C   0  0  0  0  0  0  0  0  0  0  0  0
   -2.0760   -3.5522   -6.2512 C   0  0  0  0  0  0  0  0  0  0  0  0
   -3.4211   -2.8300   -6.1921 C   0  0  0  0  0  0  0  0  0  0  0  0
   -4.6159   -3.7820   -6.3580 C   0  0  0  0  0  0  0  0  0  0  0  0
   -5.9101   -2.9851   -6.5146 C   0  0  0  0  0  0  0  0  0  0  0  0
  2  1  2  0
  3  2  1  0
  4  1  1  0
  5  4  2  0
  6  5  1  0
  6  3  2  0
  7  5  1  0
  8  7  1  0
  9  8  1  0
 10  9  2  0
 11  9  1  0
 12 10  1  0
 13 11  2  0
 14 13  1  0
 14 12  2  0
 15 13  1  0
 16 14  1  0
 17 15  2  0
 18 17  1  0
 18 16  2  0
 19 12  1  0
 20 19  1  0
 21 20  1  0
 22 21  1  0
 23 22  1  0
 24 23  1  0
 25 24  1  0
 26 25  1  0
 27 26  1  0
M  END
>  <SMILES>  (42) 
CCCCCCCCOc1nc(OCc2ccccc2)nc2ccccc12

>  <scaffold>  (42) 
benzene

$$$$

     RDKit          3D

 18 19  0  0  0  0  0  0  0  0999 V2000
   -0.0000   -0.0000   -0.0000 C   0  0  0  0  0  0  0  0  0  0  0  0
    0.0000   -0.0000    1.3941 C   0  0  0  0  0  0  0  0  0  0  0  0
    1.2042    0.0000    2.0806 C   0  0  0  0  0  0  0  0  0  0  0  0
    1.1585    0.0000   -0.7465 C   0  0  0  0  0  0  0  0  0  0  0  0
    2.3237    0.0000    0.0043 C   0  0  0  0  0  0  0  0  0  0  0  0
    2.4570    0.0000    1.3840 C   0  0  0  0  0  0  0  0  0  0  0  0
   -1.2110    0.0000    2.0186 O   0  0  0  0  0  0  0  0  0  0  0  0
   -1.2619   -0.0509    3.4269 C   0  0  0  0  0  0  0  0  0  0  0  0
   -2.6824   -0.0971    3.8262 C   0  0  0  0  0  0  0  0  0  0  0  0
   -3.1558    0.5537    4.8491 N   0  0  0  0  0  0  0  0  0  0  0  0
   -3.6392   -0.8351    3.1966 N   0  0  0  0  0  0  0  0  0  0  0  0
   -4.4744    0.2182    4.9206 O   0  0  0  0  0  0  0  0  0  0  0  0
   -4.7032   -0.6259    3.8892 C   0  0  0  0  0  0  0  0  0  0  0  0
   -6.0634   -1.1351    3.6244 C   0  0  0  0  0  0  0  0  0  0  0  0
   -5.9885   -2.4395    2.8324 C   0  0  0  0  0  0  0  0  0  0  0  0
   -5.3860   -3.5635    3.6739 C   0  0  0  0  0  0  0  0  0  0  0  0
   -5.3838   -4.8473    2.8617 C   0  0  0  0  0  0  0  0  0  0  0  0
   -4.3730   -5.2995    2.3615 O   0  0  0  0  0  0  0  0  0  0  0  0
  2  1  2  0
  3  2  1  0
  4  1  1  0
  5  4  2  0
  6  5  1  0
  6  3  2  0
  7  2  1  0
  8  7  1  0
  9  8  1  0
 10  9  2  0
 11  9  1  0
 12 10  1  0
 13 12  1  0
 13 11  2  0
 14 13  1  0
 15 14  1  0
 16 15  1  0
 17 16  1  0
 18 17  2  0
M  END
>  <SMILES>  (43) 
O=CCCCc1nc(COc2ccccc2)no1

>  <scaffold>  (43) 
benzene

$$$$

     RDKit          3D

 19 20  0  0  0  0  0  0  0  0999 V2000
   -0.0000   -0.0000   -0.0000 C   0  0  0  0  0  0  0  0  0  0  0  0
   -0.0000   -0.0000    1.3862 C   0  0  0  0  0  0  0  0  0  0  0  0
    1.2042   -0.0000    2.0726 C   0  0  0  0  0  0  0  0  0  0  0  0
    1.1652    0.0000   -0.7508 C   0  0  0  0  0  0  0  0  0  0  0  0
    2.4043   -0.0000   -0.1119 C   0  0  0  0  0  0  0  0  0  0  0  0
    2.4043   -0.0000    1.2743 C   0  0  0  0  0  0  0  0  0  0  0  0
    3.6217    0.0536   -0.9601 C   0  0  0  0  0  0  0  0  0  0  0  0
    4.5217    0.9414   -0.7204 N   0  0  0  0  0  0  0  0  0  0  0  0
    3.7072   -0.8246   -1.9881 N   0  0  0  0  0  0  0  0  0  0  0  0
    5.6357    0.9852   -1.5838 O   0  0  0  0  0  0  0  0  0  0  0  0
    6.6487    1.8866   -1.3372 C   0  0  0  0  0  0  0  0  0  0  0  0
    7.5935    1.9851   -2.0725 O   0  0  0  0  0  0  0  0  0  0  0  0
    6.4880    2.6273   -0.2236 N   0  0  0  0  0  0  0  0  0  0  0  0
    7.4890    3.5523    0.1689 C   0  0  0  0  0  0  0  0  0  0  0  0
    7.1543    4.8768    0.3511 C   0  0  0  0  0  0  0  0  0  0  0  0
    8.7661    3.0751    0.4597 C   0  0  0  0  0  0  0  0  0  0  0  0
    8.0871    5.8072    0.7820 C   0  0  0  0  0  0  0  0  0  0  0  0
    9.6865    3.9987    0.8815 C   0  0  0  0  0  0  0  0  0  0  0  0
    9.3732    5.3648    1.0880 C   0  0  0  0  0  0  0  0  0  0  0  0
  2  1  2  0
  3  2  1  0
  4  1  1  0
  5  4  2  0
  6  5  1  0
  6  3  2  0
  7  5  1  0
  8  7  2  0
  9  7  1  0
 10  8  1  0
 11 10  1  0
 12 11  2  0
 13 11  1  0
 14 13  1  0
 15 14  2  0
 16 14  1  0
 17 15  1  0
 18 16  2  0
 19 18  1  0
 19 17  2  0
M  END
>  <SMILES>  (44) 
NC(=NOC(=O)Nc1ccccc1)c1ccccc1

>  <scaffold>  (44) 
benzene

$$$$

     RDKit          3D

 21 22  0  0  0  0  0  0  0  0999 V2000
   -0.0000   -0.0000    0.0000 C   0  0  0  0  0  0  0  0  0  0  0  0
   -0.0000    0.0000    1.3862 C   0  0  0  0  0  0  0  0  0  0  0  0
    1.1810   -0.0000    2.1119 C   0  0  0  0  0  0  0  0  0  0  0  0
    1.2320   -0.0000   -0.6353 C   0  0  0  0  0  0  0  0  0  0  0  0
    2.4039    0.0000    0.1198 C   0  0  0  0  0  0  0  0  0  0  0  0
    2.4039   -0.0000    1.5139 C   0  0  0  0  0  0  0  0  0  0  0  0
   -1.5669   -0.0000    2.1942 S   0  0  0  0  0  6  0  0  0  0  0  0
   -1.4008   -0.4010    3.5616 O   0  0  0  0  0  0  0  0  0  0  0  0
   -2.5812   -0.6777    1.4082 O   0  0  0  0  0  0  0  0  0  0  0  0
    3.6500    0.0497   -0.4669 N   0  0  0  0  0  0  0  0  0  0  0  0
   -1.9632    1.5820    2.0578 N   0  0  0  0  0  0  0  0  0  0  0  0
   -3.2373    1.9917    1.4552 C   0  0  0  0  0  0  0  0  0  0  0  0
   -4.3921    1.7845    2.4066 C   0  0  0  0  0  0  0  0  0  0  0  0
   -4.8954    2.8241    3.1873 C   0  0  0  0  0  0  0  0  0  0  0  0
   -4.9559    0.5443    2.6156 C   0  0  0  0  0  0  0  0  0  0  0  0
   -5.9191    2.6705    4.1091 C   0  0  0  0  0  0  0  0  0  0  0  0
   -5.9877    0.3940    3.5410 C   0  0  0  0  0  0  0  0  0  0  0  0
   -6.4901    1.4100    4.2784 C   0  0  0  0  0  0  0  0  0  0  0  0
   -6.4504   -0.9539    3.7059 N   0  0  0  0  0  0  0  0  0  0  0  0
   -6.1022   -1.7855    2.8912 O   0  0  0  0  0  0  0  0  0  0  0  0
   -7.2328   -1.1595    4.6406 O   0  0  0  0  0  0  0  0  0  0  0  0
  2  1  2  0
  3  2  1  0
  4  1  1  0
  5  4  2  0
  6  5  1  0
  6  3  2  0
  7  2  1  0
  8  7  2  0
  9  7  2  0
 10  5  1  0
 11  7  1  0
 12 11  1  0
 13 12  1  0
 14 13  2  0
 15 13  1  0
 16 14  1  0
 17 15  2  0
 18 17  1  0
 18 16  2  0
 19 17  1  0
 20 19  2  0
 21 19  1  0
M  CHG  2  19   1  21  -1
M  END
>  <SMILES>  (45) 
Nc1ccc(S(=O)(=O)NCc2cccc([N+](=O)[O-])c2)cc1

>  <scaffold>  (45) 
benzene

$$$$

     RDKit          3D

 24 26  0  0  0  0  0  0  0  0999 V2000
    0.0000   -0.0000    0.0000 C   0  0  0  0  0  0  0  0  0  0  0  0
   -0.0000   -0.0000    1.3862 C   0  0  0  0  0  0  0  0  0  0  0  0
    1.2042    0.0000    2.0726 C   0  0  0  0  0  0  0  0  0  0  0  0
    1.1652   -0.0000   -0.7508 C   0  0  0  0  0  0  0  0  0  0  0  0
    2.3711    0.0592   -0.0538 C   0  0  0  0  0  0  0  0  0  0  0  0
    2.3704    0.1152    1.3392 C   0  0  0  0  0  0  0  0  0  0  0  0
    3.5994    0.1195   -0.6933 O   0  0  0  0  0  0  0  0  0  0  0  0
    3.8046    0.9532   -1.8323 C   0  0  0  0  0  0  0  0  0  0  0  0
    3.5594    2.3946   -1.4893 C   0  0  0  0  0  0  0  0  0  0  0  0
    2.3498    3.0287   -1.6747 C   0  0  0  0  0  0  0  0  0  0  0  0
    4.5652    3.1660   -0.8899 C   0  0  0  0  0  0  0  0  0  0  0  0
    2.0721    4.2954   -1.3398 N   0  0  0  0  0  0  0  0  0  0  0  0
    4.2828    4.4478   -0.5544 C   0  0  0  0  0  0  0  0  0  0  0  0
    3.0754    5.1029   -0.8060 C   0  0  0  0  0  0  0  0  0  0  0  0
    2.7934    6.2580   -0.5560 O   0  0  0  0  0  0  0  0  0  0  0  0
    5.5042    5.4675    0.1322 Cl  0  0  0  0  0  0  0  0  0  0  0  0
    0.8318    4.9501   -1.6785 C   0  0  0  0  0  0  0  0  0  0  0  0
    0.8031    5.3369   -3.1654 C   0  0  0  0  0  0  0  0  0  0  0  0
   -0.3915    6.0378   -3.5392 N   0  0  0  0  0  0  0  0  0  0  0  0
   -1.5276    5.5021   -4.0673 C   0  0  0  0  0  0  0  0  0  0  0  0
   -0.6365    7.3582   -3.3083 C   0  0  0  0  0  0  0  0  0  0  0  0
   -2.4641    6.4876   -4.2389 C   0  0  0  0  0  0  0  0  0  0  0  0
   -1.9060    7.6395   -3.7650 C   0  0  0  0  0  0  0  0  0  0  0  0
   -2.5998    8.8020   -3.8194 O   0  0  0  0  0  0  0  0  0  0  0  0
  2  1  2  0
  3  2  1  0
  4  1  1  0
  5  4  2  0
  6  5  1  0
  6  3  2  0
  7  5  1  0
  8  7  1  0
  9  8  1  0
 10  9  2  0
 11  9  1  0
 12 10  1  0
 13 11  2  0
 14 13  1  0
 14 12  1  0
 15 14  2  0
 16 13  1  0
 17 12  1  0
 18 17  1  0
 19 18  1  0
 20 19  1  0
 21 19  1  0
 22 20  2  0
 23 22  1  0
 23 21  2  0
 24 23  1  0
M  END
>  <SMILES>  (46) 
O=c1c(Cl)cc(COc2ccccc2)cn1CCn1ccc(O)c1

>  <scaffold>  (46) 
benzene

$$$$

     RDKit          3D

 22 24  0  0  0  0  0  0  0  0999 V2000
   -0.0000    0.0000    0.0000 C   0  0  0  0  0  0  0  0  0  0  0  0
   -0.0000   -0.0000    1.3862 C   0  0  0  0  0  0  0  0  0  0  0  0
    1.2042    0.0000    2.0726 C   0  0  0  0  0  0  0  0  0  0  0  0
    1.1990   -0.0589   -0.6931 C   0  0  0  0  0  0  0  0  0  0  0  0
    2.4366   -0.1197   -0.0541 C   0  0  0  0  0  0  0  0  0  0  0  0
    2.4387   -0.0605    1.3387 C   0  0  0  0  0  0  0  0  0  0  0  0
    3.7411   -0.1305   -0.7452 C   0  0  0  0  0  0  0  0  0  0  0  0
    4.7911    0.2470   -0.2468 O   0  0  0  0  0  0  0  0  0  0  0  0
    3.6877   -0.5398   -2.0355 N   0  0  0  0  0  0  0  0  0  0  0  0
    4.9100   -0.6144   -2.7183 N   0  0  0  0  0  0  0  0  0  0  0  0
    5.1043   -1.6741   -3.5525 C   0  0  0  0  0  0  0  0  0  0  0  0
    4.1801   -2.4701   -4.0065 N   0  0  0  0  0  0  0  0  0  0  0  0
    6.3551   -1.8994   -4.0858 N   0  0  0  0  0  0  0  0  0  0  0  0
    4.8333   -3.3543   -4.8508 C   0  0  0  0  0  0  0  0  0  0  0  0
    6.2001   -2.9985   -4.9161 C   0  0  0  0  0  0  0  0  0  0  0  0
    7.5753   -1.2247   -3.7850 C   0  0  0  0  0  0  0  0  0  0  0  0
    8.0143   -1.2086   -2.4619 C   0  0  0  0  0  0  0  0  0  0  0  0
    8.3438   -0.6266   -4.7826 C   0  0  0  0  0  0  0  0  0  0  0  0
    9.1290   -0.5467   -2.1256 C   0  0  0  0  0  0  0  0  0  0  0  0
    9.4772    0.0486   -4.4419 C   0  0  0  0  0  0  0  0  0  0  0  0
    9.8738    0.0722   -3.1063 C   0  0  0  0  0  0  0  0  0  0  0  0
   11.3148    1.0105   -2.7175 S   0  0  0  0  0  0  0  0  0  0  0  0
  2  1  2  0
  3  2  1  0
  4  1  1  0
  5  4  2  0
  6  5  1  0
  6  3  2  0
  7  5  1  0
  8  7  2  0
  9  7  1  0
 10  9  1  0
 11 10  1  0
 12 11  2  0
 13 11  1  0
 14 12  1  0
 15 14  2  0
 15 13  1  0
 16 13  1  0
 17 16  2  0
 18 16  1  0
 19 17  1  0
 20 18  2  0
 21 20  1  0
 21 19  2  0
 22 21  1  0
M  END
>  <SMILES>  (47) 
O=C(NNc1nccn1-c1ccc(S)cc1)c1ccccc1

>  <scaffold>  (47) 
benzene

$$$$

     RDKit          3D

 21 22  0  0  0  0  0  0  0  0999 V2000
    0.0000    0.0000    0.0000 C   0  0  0  0  0  0  0  0  0  0  0  0
   -0.0000    0.0000    1.3941 C   0  0  0  0  0  0  0  0  0  0  0  0
    1.2111   -0.0000    2.0845 C   0  0  0  0  0  0  0  0  0  0  0  0
    1.2320    0.0000   -0.6353 C   0  0  0  0  0  0  0  0  0  0  0  0
    2.3905    0.0000    0.1112 C   0  0  0  0  0  0  0  0  0  0  0  0
    2.3905   -0.0000    1.4974 C   0  0  0  0  0  0  0  0  0  0  0  0
   -1.1652    0.0572    2.0676 F   0  0  0  0  0  0  0  0  0  0  0  0
    3.9351   -0.0640   -0.7572 S   0  0  0  0  0  6  0  0  0  0  0  0
    4.9666    0.2971    0.2100 O   0  0  0  0  0  0  0  0  0  0  0  0
    3.8891    0.6269   -1.9950 O   0  0  0  0  0  0  0  0  0  0  0  0
    4.1010   -1.6558   -1.1414 N   0  0  0  0  0  0  0  0  0  0  0  0
    4.5864   -2.5306   -0.0902 C   0  0  0  0  0  0  0  0  0  0  0  0
    6.0708   -2.5095   -0.0664 C   0  0  0  0  0  0  0  0  0  0  0  0
    6.9225   -2.2956    0.9652 C   0  0  0  0  0  0  0  0  0  0  0  0
    6.7525   -2.6752   -1.2164 O   0  0  0  0  0  0  0  0  0  0  0  0
    8.2093   -2.3464    0.3520 C   0  0  0  0  0  0  0  0  0  0  0  0
    8.0657   -2.5637   -0.9379 C   0  0  0  0  0  0  0  0  0  0  0  0
    9.0103   -2.7766   -2.0859 C   0  0  2  0  0  0  0  0  0  0  0  0
    8.9045   -4.2300   -2.5448 C   0  0  0  0  0  0  0  0  0  0  0  0
   10.4871   -2.4437   -1.8793 C   0  0  0  0  0  0  0  0  0  0  0  0
   11.3957   -2.6262   -3.0939 C   0  0  0  0  0  0  0  0  0  0  0  0
  2  1  2  0
  3  2  1  0
  4  1  1  0
  5  4  2  0
  6  5  1  0
  6  3  2  0
  7  2  1  0
  8  5  1  0
  9  8  2  0
 10  8  2  0
 11  8  1  0
 12 11  1  0
 13 12  1  0
 14 13  2  0
 15 13  1  0
 16 14  1  0
 17 16  2  0
 17 15  1  0
 18 17  1  0
 18 19  1  1
 20 18  1  0
 21 20  1  0
M  END
>  <SMILES>  (48) 
CCC(C)c1ccc(CNS(=O)(=O)c2ccc(F)cc2)o1

>  <scaffold>  (48) 
benzene

$$$$

     RDKit          3D

 30 32  0  0  0  0  0  0  0  0999 V2000
   -0.0000   -0.0000    0.0000 C   0  0  0  0  0  0  0  0  0  0  0  0
    0.0000   -0.0000    1.3862 C   0  0  0  0  0  0  0  0  0  0  0  0
    1.2154   -0.0000    2.0527 C   0  0  0  0  0  0  0  0  0  0  0  0
    1.1585    0.0000   -0.7465 C   0  0  0  0  0  0  0  0  0  0  0  0
    2.3976   -0.0000   -0.1076 C   0  0  0  0  0  0  0  0  0  0  0  0
    2.3976   -0.0000    1.2865 C   0  0  0  0  0  0  0  0  0  0  0  0
   -1.1453    0.0563    2.0482 F   0  0  0  0  0  0  0  0  0  0  0  0
    3.5884   -0.0500   -0.8154 N   0  0  0  0  0  0  0  0  0  0  0  0
    3.8348   -0.1061   -2.1703 C   0  0  0  0  0  0  0  0  0  0  0  0
    2.9358   -0.1194   -2.9877 O   0  0  0  0  0  0  0  0  0  0  0  0
    5.1584   -0.1975   -2.4803 N   0  0  0  0  0  0  0  0  0  0  0  0
    5.6285   -0.2105   -3.8531 C   0  0  0  0  0  0  0  0  0  0  0  0
    6.4081    1.0282   -4.1900 C   0  0  0  0  0  0  0  0  0  0  0  0
    5.8002    2.2710   -4.1047 C   0  0  0  0  0  0  0  0  0  0  0  0
    7.7423    0.9913   -4.5925 C   0  0  0  0  0  0  0  0  0  0  0  0
    6.4971    3.4513   -4.3590 C   0  0  0  0  0  0  0  0  0  0  0  0
    8.4274    2.1516   -4.8425 C   0  0  0  0  0  0  0  0  0  0  0  0
    7.8121    3.3535   -4.7599 C   0  0  0  0  0  0  0  0  0  0  0  0
    8.5743    4.4250   -5.0858 O   0  0  0  0  0  0  0  0  0  0  0  0
    8.0866    5.7524   -4.9779 C   0  0  0  0  0  0  0  0  0  0  0  0
    9.1722    6.7472   -5.3516 C   0  0  0  0  0  0  0  0  0  0  0  0
    9.6877    6.5891   -7.1057 S   0  0  0  0  0  0  0  0  0  0  0  0
   11.3273    5.8726   -6.9841 C   0  0  0  0  0  0  0  0  0  0  0  0
   11.5392    4.6467   -6.3908 C   0  0  0  0  0  0  0  0  0  0  0  0
   12.3740    6.5443   -7.5782 C   0  0  0  0  0  0  0  0  0  0  0  0
   12.8174    4.1111   -6.3642 C   0  0  0  0  0  0  0  0  0  0  0  0
   13.6358    6.0104   -7.5532 C   0  0  0  0  0  0  0  0  0  0  0  0
   13.8675    4.7734   -6.9807 C   0  0  0  0  0  0  0  0  0  0  0  0
   15.1581    4.3210   -7.0679 O   0  0  0  0  0  0  0  0  0  0  0  0
   15.5143    3.1080   -6.4432 C   0  0  0  0  0  0  0  0  0  0  0  0
  2  1  2  0
  3  2  1  0
  4  1  1  0
  5  4  2  0
  6  5  1  0
  6  3  2  0
  7  2  1  0
  8  5  1  0
  9  8  1  0
 10  9  2  0
 11  9  1  0
 12 11  1  0
 13 12  1  0
 14 13  2  0
 15 13  1  0
 16 14  1  0
 17 15  2  0
 18 17  1  0
 18 16  2  0
 19 18  1  0
 20 19  1  0
 21 20  1  0
 22 21  1  0
 23 22  1  0
 24 23  2  0
 25 23  1  0
 26 24  1  0
 27 25  2  0
 28 26  2  0
 28 27  1  0
 29 28  1  0
 30 29  1  0
M  END
>  <SMILES>  (49) 
COc1ccc(SCCOc2ccc(CNC(=O)Nc3ccc(F)cc3)cc2)cc1

>  <scaffold>  (49) 
benzene

$$$$

     RDKit          3D

 28 30  0  0  0  0  0  0  0  0999 V2000
    0.0000   -0.0000   -0.0000 C   0  0  0  0  0  0  0  0  0  0  0  0
    0.0000   -0.0000    1.3862 C   0  0  0  0  0  0  0  0  0  0  0  0
    1.2042    0.0000    2.0726 C   0  0  0  0  0  0  0  0  0  0  0  0
    1.1585    0.0000   -0.7465 C   0  0  0  0  0  0  0  0  0  0  0  0
    2.4047   -0.0000   -0.1039 C   0  0  0  0  0  0  0  0  0  0  0  0
    2.4047    0.0000    1.2982 C   0  0  0  0  0  0  0  0  0  0  0  0
   -1.1719    0.0576    2.0635 F   0  0  0  0  0  0  0  0  0  0  0  0
    3.5887   -0.0497   -0.8077 N   0  0  0  0  0  0  0  0  0  0  0  0
    3.7557    0.3514   -2.1749 C   0  0  0  0  0  0  0  0  0  0  0  0
    3.5697    1.8317   -2.3473 C   0  0  0  0  0  0  0  0  0  0  0  0
    3.2925    2.6687   -1.4001 N   0  0  0  0  0  0  0  0  0  0  0  0
    3.6257    2.4802   -3.6073 C   0  0  0  0  0  0  0  0  0  0  0  0
    3.2418    3.9369   -1.8738 O   0  0  0  0  0  0  0  0  0  0  0  0
    3.4540    3.7721   -3.2098 C   0  0  0  0  0  0  0  0  0  0  0  0
    3.4636    5.0138   -4.0239 C   0  0  0  0  0  0  0  0  0  0  0  0
    4.6628    5.1267   -4.9639 C   0  0  0  0  0  0  0  0  0  0  0  0
    5.9683    5.1791   -4.1719 C   0  0  0  0  0  0  0  0  0  0  0  0
    7.1355    5.2364   -5.1562 C   0  0  0  0  0  0  0  0  0  0  0  0
    8.4654    5.3454   -4.4120 C   0  0  0  0  0  0  0  0  0  0  0  0
    9.5983    5.4548   -5.4444 C   0  0  0  0  0  0  0  0  0  0  0  0
   10.9178    5.6176   -4.7645 C   0  0  0  0  0  0  0  0  0  0  0  0
   11.5018    6.8186   -4.4238 C   0  0  0  0  0  0  0  0  0  0  0  0
   11.6930    4.5261   -4.3753 C   0  0  0  0  0  0  0  0  0  0  0  0
   12.6433    7.0087   -3.7802 N   0  0  0  0  0  0  0  0  0  0  0  0
   12.8748    4.7241   -3.7104 C   0  0  0  0  0  0  0  0  0  0  0  0
   13.2754    5.9152   -3.4363 C   0  0  0  0  0  0  0  0  0  0  0  0
   14.7365    6.1002   -2.5419 S   0  0  0  0  0  0  0  0  0  0  0  0
   14.9022    7.9005   -2.2952 C   0  0  0  0  0  0  0  0  0  0  0  0
  2  1  2  0
  3  2  1  0
  4  1  1  0
  5  4  2  0
  6  5  1  0
  6  3  2  0
  7  2  1  0
  8  5  1  0
  9  8  1  0
 10  9  1  0
 11 10  2  0
 12 10  1  0
 13 11  1  0
 14 13  1  0
 14 12  2  0
 15 14  1  0
 16 15  1  0
 17 16  1  0
 18 17  1  0
 19 18  1  0
 20 19  1  0
 21 20  1  0
 22 21  2  0
 23 21  1  0
 24 22  1  0
 25 23  2  0
 26 25  1  0
 26 24  2  0
 27 26  1  0
 28 27  1  0
M  END
>  <SMILES>  (50) 
CSc1ccc(CCCCCCc2cc(CNc3ccc(F)cc3)no2)cn1

>  <scaffold>  (50) 
benzene

$$$$
