
     RDKit          3D

 23 26  0  0  0  0  0  0  0  0999 V2000
   -0.0000   -0.0000   -0.0000 C   0  0  2  0  0  0  0  0  0  0  0  0
   -0.0000    0.0000    1.5366 C   0  0  0  0  0  0  0  0  0  0  0  0
    1.5075   -0.0000    1.8770 C   0  0  0  0  0  0  0  0  0  0  0  0
    0.4267   -1.4065   -0.4482 C   0  0  0  0  0  0  0  0  0  0  0  0
    1.9382   -1.4065   -0.1262 C   0  0  2  0  0  0  0  0  0  0  0  0
    2.1900   -0.0264    0.5221 C   0  0  1  0  0  0  0  0  0  0  0  0
    1.2425    0.8302   -0.3183 C   0  0  0  0  0  0  0  0  0  0  0  0
    2.7084   -1.6437   -1.3131 N   0  0  0  0  0  0  0  0  0  0  0  0
    2.5981   -0.8741   -2.3569 N   0  0  0  0  0  0  0  0  0  0  0  0
    3.5177   -2.6759   -1.4262 N   0  0  0  0  0  0  0  0  0  0  0  0
    3.4275   -1.4798   -3.2046 C   0  0  0  0  0  0  0  0  0  0  0  0
    3.9772   -2.5912   -2.5938 N   0  0  0  0  0  0  0  0  0  0  0  0
    3.7384   -0.9857   -4.5606 C   0  0  0  0  0  0  0  0  0  0  0  0
    3.3368    0.0411   -5.0546 O   0  0  0  0  0  0  0  0  0  0  0  0
    4.5762   -1.8575   -5.1888 N   0  0  0  0  0  0  0  0  0  0  0  0
    5.0483   -1.6058   -6.4166 N   0  0  0  0  0  0  0  0  0  0  0  0
    5.7915   -2.4681   -6.9843 C   0  0  0  0  0  0  0  0  0  0  0  0
    6.3660   -2.2206   -8.2845 C   0  0  0  0  0  0  0  0  0  0  0  0
    7.1290   -3.2100   -8.8847 C   0  0  0  0  0  0  0  0  0  0  0  0
    6.1321   -1.0364   -8.9659 C   0  0  0  0  0  0  0  0  0  0  0  0
    7.7453   -2.9985  -10.1172 C   0  0  0  0  0  0  0  0  0  0  0  0
    6.7353   -0.8270  -10.1696 C   0  0  0  0  0  0  0  0  0  0  0  0
    7.6312   -1.7455  -10.7178 C   0  0  0  0  0  0  0  0  0  0  0  0
  2  1  1  0
  3  2  1  0
  4  1  1  0
  5  4  1  0
  6  5  1  0
  6  3  1  1
  7  6  1  0
  7  1  1  0
  5  8  1  6
  9  8  1  0
 10  8  1  0
 11  9  2  0
 12 11  1  0
 12 10  2  0
 13 11  1  0
 14 13  2  0
 15 13  1  0
 16 15  1  0
 17 16  2  0
 18 17  1  0
 19 18  2  0
 20 18  1  0
 21 19  1  0
 22 20  2  0
 23 22  1  0
 23 21  2  0
M  END
>  <SMILES>  (1) 
O=C(NN=Cc1ccccc1)c1nnn(C2CC3CCC2C3)n1

>  <scaffold>  (1) 
cyclohexane

$$$$

     RDKit          3D

 16 17  0  0  0  0  0  0  0  0999 V2000
   -0.0000   -0.0000   -0.0000 C   0  0  0  0  0  0  0  0  0  0  0  0
   -0.0000   -0.0000    1.5279 C   0  0  0  0  0  0  0  0  0  0  0  0
    1.4333    0.0000    2.0570 C   0  0  0  0  0  0  0  0  0  0  0  0
    2.1739    1.2355    1.5477 C   0  0  0  0  0  0  0  0  0  0  0  0
    2.1262    1.3104    0.0224 C   0  0  0  0  0  0  0  0  0  0  0  0
    0.7406    1.2355   -0.5093 C   0  0  0  0  0  0  0  0  0  0  0  0
    2.7881    2.5097   -0.4037 N   0  0  0  0  0  0  0  0  0  0  0  0
    3.8653    2.5121   -1.1475 N   0  0  0  0  0  0  0  0  0  0  0  0
    2.3335    3.7190   -0.0507 N   0  0  0  0  0  0  0  0  0  0  0  0
    4.1951    3.7409   -1.2822 N   0  0  0  0  0  0  0  0  0  0  0  0
    3.2385    4.4916   -0.5962 C   0  0  0  0  0  0  0  0  0  0  0  0
    3.2603    5.8568   -0.4789 N   0  0  0  0  0  0  0  0  0  0  0  0
    2.5346    6.6467    0.4116 C   0  0  0  0  0  0  0  0  0  0  0  0
    2.4937    7.8328    0.2776 O   0  0  0  0  0  0  0  0  0  0  0  0
    1.8966    5.9237    1.2970 O   0  0  0  0  0  0  0  0  0  0  0  0
    1.1638    6.6157    2.2948 C   0  0  0  0  0  0  0  0  0  0  0  0
  2  1  1  0
  3  2  1  0
  4  3  1  0
  5  4  1  0
  6  5  1  0
  6  1  1  0
  7  5  1  0
  8  7  1  0
  9  7  1  0
 10  8  2  0
 11 10  1  0
 11  9  2  0
 12 11  1  0
 13 12  1  0
 14 13  2  0
 15 13  1  0
 16 15  1  0
M  END
>  <SMILES>  (2) 
COC(=O)Nc1nnn(C2CCCCC2)n1

>  <scaffold>  (2) 
cyclohexane

$$$$

     RDKit          3D

 32 34  0  0  0  0  0  0  0  0999 V2000
   -0.0000    0.0000   -0.0000 C   0  0  0  0  0  0  0  0  0  0  0  0
   -0.0000    0.0000    1.5279 C   0  0  0  0  0  0  0  0  0  0  0  0
    1.4333    0.0000    2.0570 C   0  0  0  0  0  0  0  0  0  0  0  0
    0.7869    1.1777   -0.5729 C   0  0  0  0  0  0  0  0  0  0  0  0
    2.1739    1.2355    1.5477 C   0  0  0  0  0  0  0  0  0  0  0  0
    2.2339    1.2488   -0.0607 C   0  0  0  0  0  0  0  0  0  0  0  0
    2.9829    0.1572   -0.6346 N   0  0  0  0  0  0  0  0  0  0  0  0
    4.0265    0.3315   -1.4431 C   0  0  0  0  0  0  0  0  0  0  0  0
    4.5305    1.3804   -1.7680 O   0  0  0  0  0  0  0  0  0  0  0  0
    4.5415   -0.8970   -1.9058 N   0  0  0  0  0  0  0  0  0  0  0  0
    5.5686   -1.0598   -2.7863 C   0  0  0  0  0  0  0  0  0  0  0  0
    4.0488   -2.0778   -1.5095 N   0  0  0  0  0  0  0  0  0  0  0  0
    5.7518   -2.4054   -2.8972 C   0  0  0  0  0  0  0  0  0  0  0  0
    4.8004   -2.9728   -2.0992 C   0  0  0  0  0  0  0  0  0  0  0  0
    4.6257   -4.4220   -1.8787 C   0  0  0  0  0  0  0  0  0  0  0  0
    6.8544   -3.2811   -3.9076 Cl  0  0  0  0  0  0  0  0  0  0  0  0
    5.6500   -4.8741   -0.8648 C   0  0  0  0  0  0  0  0  0  0  0  0
    6.7152   -5.6992   -1.1904 C   0  0  0  0  0  0  0  0  0  0  0  0
    5.5806   -4.4308    0.4467 C   0  0  0  0  0  0  0  0  0  0  0  0
    7.6635   -6.0497   -0.2305 C   0  0  0  0  0  0  0  0  0  0  0  0
    6.5147   -4.7748    1.3885 C   0  0  0  0  0  0  0  0  0  0  0  0
    7.5878   -5.5962    1.0772 C   0  0  0  0  0  0  0  0  0  0  0  0
    8.4708   -5.8234    2.0791 O   0  0  0  0  0  0  0  0  0  0  0  0
    9.5626   -6.6484    1.8128 C   0  0  0  0  0  0  0  0  0  0  0  0
    9.1310   -8.0766    1.5270 C   0  0  0  0  0  0  0  0  0  0  0  0
    8.0291   -8.5363    1.5599 O   0  0  0  0  0  0  0  0  0  0  0  0
   10.2049   -8.8201    1.2305 O   0  0  0  0  0  0  0  0  0  0  0  0
    9.9961  -10.2019    0.8713 C   0  0  1  0  0  0  0  0  0  0  0  0
    9.4940  -10.3549   -0.5635 C   0  0  0  0  0  0  0  0  0  0  0  0
   11.2903  -10.9890    1.0710 C   0  0  0  0  0  0  0  0  0  0  0  0
   11.7280  -11.0366    2.5341 C   0  0  0  0  0  0  0  0  0  0  0  0
   13.0520  -11.7865    2.6721 C   0  0  0  0  0  0  0  0  0  0  0  0
  2  1  1  0
  3  2  1  0
  4  1  1  0
  5  3  1  0
  6  5  1  0
  6  4  1  0
  7  6  1  0
  8  7  1  0
  9  8  2  0
 10  8  1  0
 11 10  1  0
 12 10  1  0
 13 11  2  0
 14 12  2  0
 14 13  1  0
 15 14  1  0
 16 13  1  0
 17 15  1  0
 18 17  2  0
 19 17  1  0
 20 18  1  0
 21 19  2  0
 22 20  2  0
 22 21  1  0
 23 22  1  0
 24 23  1  0
 25 24  1  0
 26 25  2  0
 27 25  1  0
 28 27  1  0
 28 29  1  6
 30 28  1  0
 31 30  1  0
 32 31  1  0
M  END
>  <SMILES>  (3) 
CCCC(C)OC(=O)COc1ccc(Cc2nn(C(=O)NC3CCCCC3)cc2Cl)cc1

>  <scaffold>  (3) 
cyclohexane

$$$$

     RDKit          3D

 38 40  0  0  0  0  0  0  0  0999 V2000
   -0.0000    0.0000   -0.0000 C   0  0  0  0  0  0  0  0  0  0  0  0
    0.0000    0.0000    1.5279 C   0  0  0  0  0  0  0  0  0  0  0  0
    1.4333   -0.0000    2.0570 C   0  0  0  0  0  0  0  0  0  0  0  0
    2.2202    1.1777    1.4840 C   0  0  0  0  0  0  0  0  0  0  0  0
    0.7406    1.2355   -0.5093 C   0  0  0  0  0  0  0  0  0  0  0  0
    2.2403    1.0877   -0.0410 C   0  0  0  0  0  0  0  0  0  0  0  0
    3.0939    2.1132   -0.6323 N   0  0  0  0  0  0  0  0  0  0  0  0
    2.7276    3.5003   -0.4781 C   0  0  0  0  0  0  0  0  0  0  0  0
    4.1509    1.7083   -1.3907 C   0  0  0  0  0  0  0  0  0  0  0  0
    4.4219    0.5330   -1.5385 O   0  0  0  0  0  0  0  0  0  0  0  0
    4.8947    2.7058   -1.9649 N   0  0  0  0  0  0  0  0  0  0  0  0
    6.0522    2.6390   -2.7391 C   0  0  0  0  0  0  0  0  0  0  0  0
    6.6659    1.4392   -3.0635 C   0  0  0  0  0  0  0  0  0  0  0  0
    6.6528    3.8325   -3.1643 C   0  0  0  0  0  0  0  0  0  0  0  0
    7.8570    1.4256   -3.8031 C   0  0  0  0  0  0  0  0  0  0  0  0
    7.8115    3.8171   -3.8810 C   0  0  0  0  0  0  0  0  0  0  0  0
    8.4656    2.5839   -4.2363 C   0  0  0  0  0  0  0  0  0  0  0  0
    9.6434    2.7010   -4.9112 O   0  0  0  0  0  0  0  0  0  0  0  0
   10.2918    1.4977   -5.1851 C   0  0  0  0  0  0  0  0  0  0  0  0
   10.8655    0.6862   -4.2074 C   0  0  0  0  0  0  0  0  0  0  0  0
   10.4840    1.2223   -6.5300 C   0  0  0  0  0  0  0  0  0  0  0  0
   11.5319   -0.4583   -4.5277 C   0  0  0  0  0  0  0  0  0  0  0  0
   11.1686    0.0601   -6.8495 C   0  0  0  0  0  0  0  0  0  0  0  0
   11.6822   -0.7790   -5.8761 C   0  0  0  0  0  0  0  0  0  0  0  0
   12.3210   -1.9758   -6.0699 O   0  0  0  0  0  0  0  0  0  0  0  0
   12.6113   -2.2791   -7.3993 C   0  0  0  0  0  0  0  0  0  0  0  0
   13.6480   -1.3952   -8.0908 C   0  0  0  0  0  0  0  0  0  0  0  0
   13.7693   -1.2492   -9.2770 O   0  0  0  0  0  0  0  0  0  0  0  0
   14.4176   -0.8340   -7.1928 O   0  0  0  0  0  0  0  0  0  0  0  0
   15.4606   -0.0275   -7.7154 C   0  0  0  0  0  0  0  0  0  0  0  0
   16.6470   -0.8477   -8.2196 C   0  0  0  0  0  0  0  0  0  0  0  0
   17.7167    0.0627   -8.8206 C   0  0  0  0  0  0  0  0  0  0  0  0
   18.9026   -0.7146   -9.3898 C   0  0  0  0  0  0  0  0  0  0  0  0
   19.9155    0.2361  -10.0258 C   0  0  0  0  0  0  0  0  0  0  0  0
   21.1488   -0.4884  -10.5627 C   0  0  0  0  0  0  0  0  0  0  0  0
   20.8461   -1.3103  -11.8146 C   0  0  0  0  0  0  0  0  0  0  0  0
   22.0962   -2.0562  -12.2785 C   0  0  0  0  0  0  0  0  0  0  0  0
   21.7278   -2.9023  -13.4961 C   0  0  0  0  0  0  0  0  0  0  0  0
  2  1  1  0
  3  2  1  0
  4  3  1  0
  5  1  1  0
  6  5  1  0
  6  4  1  0
  7  6  1  0
  8  7  1  0
  9  7  1  0
 10  9  2  0
 11  9  1  0
 12 11  1  0
 13 12  2  0
 14 12  1  0
 15 13  1  0
 16 14  2  0
 17 16  1  0
 17 15  2  0
 18 17  1  0
 19 18  1  0
 20 19  2  0
 21 19  1  0
 22 20  1  0
 23 21  2  0
 24 23  1  0
 24 22  2  0
 25 24  1  0
 26 25  1  0
 27 26  1  0
 28 27  2  0
 29 27  1  0
 30 29  1  0
 31 30  1  0
 32 31  1  0
 33 32  1  0
 34 33  1  0
 35 34  1  0
 36 35  1  0
 37 36  1  0
 38 37  1  0
M  END
>  <SMILES>  (4) 
CCCCCCCCCOC(=O)COc1ccc(Oc2ccc(NC(=O)N(C)C3CCCCC3)cc2)cc1

>  <scaffold>  (4) 
cyclohexane

$$$$

     RDKit          3D

 22 24  0  0  0  0  0  0  0  0999 V2000
    0.0000   -0.0000   -0.0000 C   0  0  0  0  0  0  0  0  0  0  0  0
    0.0000   -0.0000    1.5279 C   0  0  0  0  0  0  0  0  0  0  0  0
    1.4333   -0.0000    2.0570 C   0  0  0  0  0  0  0  0  0  0  0  0
    0.7406   -1.2355   -0.5093 C   0  0  0  0  0  0  0  0  0  0  0  0
    2.1739   -1.2355    1.5477 C   0  0  0  0  0  0  0  0  0  0  0  0
    2.1262   -1.3104    0.0224 C   0  0  0  0  0  0  0  0  0  0  0  0
    2.7881   -2.5097   -0.4037 N   0  0  0  0  0  0  0  0  0  0  0  0
    4.0446   -2.5506   -0.7688 N   0  0  0  0  0  0  0  0  0  0  0  0
    2.1494   -3.6518   -0.4370 N   0  0  0  0  0  0  0  0  0  0  0  0
    4.2962   -3.7774   -1.0304 N   0  0  0  0  0  0  0  0  0  0  0  0
    3.1368   -4.4675   -0.8287 C   0  0  0  0  0  0  0  0  0  0  0  0
    2.8974   -5.8059   -1.0542 N   0  0  0  0  0  0  0  0  0  0  0  0
    3.8481   -6.7993   -1.2299 C   0  0  0  0  0  0  0  0  0  0  0  0
    3.5059   -7.8432   -1.7492 O   0  0  0  0  0  0  0  0  0  0  0  0
    5.2528   -6.5480   -0.7900 C   0  0  0  0  0  0  0  0  0  0  0  0
    5.5054   -6.3849    0.5713 C   0  0  0  0  0  0  0  0  0  0  0  0
    6.2892   -6.5131   -1.6859 C   0  0  0  0  0  0  0  0  0  0  0  0
    6.8228   -6.2043    0.9339 C   0  0  0  0  0  0  0  0  0  0  0  0
    7.6139   -6.3330   -1.3194 C   0  0  0  0  0  0  0  0  0  0  0  0
    7.8695   -6.2378    0.0379 C   0  0  0  0  0  0  0  0  0  0  0  0
    8.5504   -6.2638   -2.3067 O   0  0  0  0  0  0  0  0  0  0  0  0
    9.9037   -6.0309   -1.9857 C   0  0  0  0  0  0  0  0  0  0  0  0
  2  1  1  0
  3  2  1  0
  4  1  1  0
  5  3  1  0
  6  5  1  0
  6  4  1  0
  7  6  1  0
  8  7  1  0
  9  7  1  0
 10  8  2  0
 11 10  1  0
 11  9  2  0
 12 11  1  0
 13 12  1  0
 14 13  2  0
 15 13  1  0
 16 15  2  0
 17 15  1  0
 18 16  1  0
 19 17  2  0
 20 19  1  0
 20 18  2  0
 21 19  1  0
 22 21  1  0
M  END
>  <SMILES>  (5) 
COc1cccc(C(=O)Nc2nnn(C3CCCCC3)n2)c1

>  <scaffold>  (5) 
cyclohexane

$$$$

     RDKit          3D

 13 14  0  0  0  0  0  0  0  0999 V2000
    0.0000    0.0000    0.0000 C   0  0  0  0  0  0  0  0  0  0  0  0
    0.0000   -0.0000    1.5279 C   0  0  0  0  0  0  0  0  0  0  0  0
    1.4333   -0.0000    2.0570 C   0  0  0  0  0  0  0  0  0  0  0  0
    0.7406   -1.2355   -0.5093 C   0  0  0  0  0  0  0  0  0  0  0  0
    2.1739   -1.2355    1.5477 C   0  0  0  0  0  0  0  0  0  0  0  0
    2.1259   -1.3108    0.0136 C   0  0  0  0  0  0  0  0  0  0  0  0
    2.7841   -2.5033   -0.4101 N   0  0  0  0  0  0  0  0  0  0  0  0
    3.9147   -2.4985   -1.0398 N   0  0  0  0  0  0  0  0  0  0  0  0
    2.2668   -3.6916   -0.2263 N   0  0  0  0  0  0  0  0  0  0  0  0
    4.2206   -3.7442   -1.2112 N   0  0  0  0  0  0  0  0  0  0  0  0
    3.2194   -4.4835   -0.7149 C   0  0  0  0  0  0  0  0  0  0  0  0
    3.0799   -5.8375   -0.7768 N   0  0  0  0  0  0  0  0  0  0  0  0
    4.2485   -6.6471   -0.9687 C   0  0  0  0  0  0  0  0  0  0  0  0
  2  1  1  0
  3  2  1  0
  4  1  1  0
  5  3  1  0
  6  5  1  0
  6  4  1  0
  7  6  1  0
  8  7  1  0
  9  7  1  0
 10  8  2  0
 11 10  1  0
 11  9  2  0
 12 11  1  0
 13 12  1  0
M  END
>  <SMILES>  (6) 
CNc1nnn(C2CCCCC2)n1

>  <scaffold>  (6) 
cyclohexane

$$$$

     RDKit          3D

 36 38  0  0  0  0  0  0  0  0999 V2000
   -0.0000   -0.0000   -0.0000 C   0  0  0  0  0  0  0  0  0  0  0  0
   -0.0000    0.0000    1.5279 C   0  0  0  0  0  0  0  0  0  0  0  0
    1.4333   -0.0000    2.0570 C   0  0  0  0  0  0  0  0  0  0  0  0
    0.7406   -1.2355   -0.5093 C   0  0  0  0  0  0  0  0  0  0  0  0
    2.1739   -1.2355    1.5477 C   0  0  0  0  0  0  0  0  0  0  0  0
    2.1951   -1.2410    0.0112 C   0  0  1  0  0  0  0  0  0  0  0  0
    2.9298   -2.3645   -0.5177 N   0  0  0  0  0  0  0  0  0  0  0  0
    4.0746   -2.2711   -1.2361 C   0  0  0  0  0  0  0  0  0  0  0  0
    4.5905   -1.1893   -1.4362 O   0  0  0  0  0  0  0  0  0  0  0  0
    4.6427   -3.5478   -1.7379 C   0  0  0  0  0  0  0  0  0  0  0  0
    3.8769   -4.6695   -2.0149 C   0  0  0  0  0  0  0  0  0  0  0  0
    6.0119   -3.6767   -1.9111 C   0  0  0  0  0  0  0  0  0  0  0  0
    4.5174   -5.7857   -2.5297 C   0  0  0  0  0  0  0  0  0  0  0  0
    6.6512   -4.7874   -2.4184 C   0  0  0  0  0  0  0  0  0  0  0  0
    5.8767   -5.8643   -2.7900 C   0  0  0  0  0  0  0  0  0  0  0  0
    6.6234   -6.9112   -3.2404 O   0  0  0  0  0  0  0  0  0  0  0  0
    5.9073   -8.0700   -3.5368 C   0  0  0  0  0  0  0  0  0  0  0  0
    4.9560   -7.9929   -4.7187 C   0  0  0  0  0  0  0  0  0  0  0  0
    4.0107   -8.7200   -4.9122 O   0  0  0  0  0  0  0  0  0  0  0  0
    5.3363   -7.0164   -5.5405 O   0  0  0  0  0  0  0  0  0  0  0  0
    4.5506   -6.7544   -6.6619 C   0  0  0  0  0  0  0  0  0  0  0  0
    4.3519   -5.4035   -6.9005 C   0  0  0  0  0  0  0  0  0  0  0  0
    4.0268   -7.7273   -7.4989 C   0  0  0  0  0  0  0  0  0  0  0  0
    3.6216   -5.0950   -8.0279 C   0  0  0  0  0  0  0  0  0  0  0  0
    3.2956   -7.4176   -8.6254 C   0  0  0  0  0  0  0  0  0  0  0  0
    3.0667   -5.9981   -8.9457 C   0  0  0  0  0  0  0  0  0  0  0  0
    2.3074   -5.5663  -10.0119 O   0  0  0  0  0  0  0  0  0  0  0  0
    1.6875   -6.4379  -10.9309 C   0  0  0  0  0  0  0  0  0  0  0  0
    0.8631   -5.6818  -11.9716 C   0  0  0  0  0  0  0  0  0  0  0  0
    0.2143   -6.5786  -13.0247 C   0  0  0  0  0  0  0  0  0  0  0  0
   -0.5766   -5.8660  -14.1207 C   0  0  0  0  0  0  0  0  0  0  0  0
   -1.1587   -6.8029  -15.1779 C   0  0  0  0  0  0  0  0  0  0  0  0
   -1.9749   -6.0566  -16.2066 C   0  0  0  0  0  0  0  0  0  0  0  0
   -2.6250   -6.9561  -17.2566 C   0  0  0  0  0  0  0  0  0  0  0  0
   -3.4819   -6.1593  -18.2392 C   0  0  0  0  0  0  0  0  0  0  0  0
   -4.1549   -7.1138  -19.2378 C   0  0  0  0  0  0  0  0  0  0  0  0
  2  1  1  0
  3  2  1  0
  4  1  1  0
  5  3  1  0
  6  5  1  0
  6  4  1  0
  6  7  1  1
  8  7  1  0
  9  8  2  0
 10  8  1  0
 11 10  1  0
 12 10  1  0
 13 11  2  0
 14 12  1  0
 15 13  1  0
 15 14  2  0
 16 15  1  0
 17 16  1  0
 18 17  1  0
 19 18  2  0
 20 18  1  0
 21 20  1  0
 22 21  2  0
 23 21  1  0
 24 22  1  0
 25 23  2  0
 26 25  1  0
 26 24  2  0
 27 26  1  0
 28 27  1  0
 29 28  1  0
 30 29  1  0
 31 30  1  0
 32 31  1  0
 33 32  1  0
 34 33  1  0
 35 34  1  0
 36 35  1  0
M  CHG  2   5  -1  10   1
M  END
>  <SMILES>  (7) 
CCCCCCCCCOc1ccc(OC(=O)COC2=CC[C+](C(=O)NC3[CH-]CCCC3)C=C2)cc1

>  <scaffold>  (7) 
cyclohexane

$$$$

     RDKit          3D

 31 33  0  0  0  0  0  0  0  0999 V2000
    0.0000    0.0000   -0.0000 C   0  0  0  0  0  0  0  0  0  0  0  0
    0.0000   -0.0000    1.5279 C   0  0  0  0  0  0  0  0  0  0  0  0
    1.4333    0.0000    2.0570 C   0  0  0  0  0  0  0  0  0  0  0  0
    2.1739    1.2355    1.5477 C   0  0  0  0  0  0  0  0  0  0  0  0
    2.1950    1.2410    0.0200 C   0  0  0  0  0  0  0  0  0  0  0  0
    0.7406    1.2355   -0.5093 C   0  0  0  0  0  0  0  0  0  0  0  0
    2.9339    2.3709   -0.5119 N   0  0  0  0  0  0  0  0  0  0  0  0
    4.1922    2.2668   -1.0030 C   0  0  0  0  0  0  0  0  0  0  0  0
    4.7713    1.2014   -1.0806 O   0  0  0  0  0  0  0  0  0  0  0  0
    4.6921    3.5064   -1.3993 N   0  0  0  0  0  0  0  0  0  0  0  0
    5.9136    3.8089   -1.9994 C   0  0  0  0  0  0  0  0  0  0  0  0
    6.0863    5.0951   -2.5302 C   0  0  0  0  0  0  0  0  0  0  0  0
    6.9150    2.8458   -2.1141 C   0  0  0  0  0  0  0  0  0  0  0  0
    7.3006    5.4575   -3.0921 C   0  0  0  0  0  0  0  0  0  0  0  0
    8.1099    3.2007   -2.6642 C   0  0  0  0  0  0  0  0  0  0  0  0
    8.3681    4.5610   -3.0758 C   0  0  0  0  0  0  0  0  0  0  0  0
    9.5919    4.8616   -3.6721 N   0  0  0  0  0  0  0  0  0  0  0  0
   10.1536    6.0592   -4.0590 C   0  0  0  0  0  0  0  0  0  0  0  0
   11.0962    6.0632   -4.8148 O   0  0  0  0  0  0  0  0  0  0  0  0
    9.5690    7.1653   -3.4997 N   0  0  0  0  0  0  0  0  0  0  0  0
    9.9816    8.4929   -3.6818 C   0  0  0  0  0  0  0  0  0  0  0  0
   10.7726    8.9394   -4.7289 C   0  0  0  0  0  0  0  0  0  0  0  0
    9.4920    9.4572   -2.8147 C   0  0  0  0  0  0  0  0  0  0  0  0
   11.0700   10.2896   -4.8290 C   0  0  0  0  0  0  0  0  0  0  0  0
    9.7829   10.8080   -2.9250 C   0  0  0  0  0  0  0  0  0  0  0  0
   10.6122   11.2441   -3.9218 C   0  0  0  0  0  0  0  0  0  0  0  0
   10.9263   12.5413   -4.1540 O   0  0  0  0  0  0  0  0  0  0  0  0
   10.6596   13.6010   -3.2372 C   0  0  0  0  0  0  0  0  0  0  0  0
   11.6524   13.5706   -2.0648 C   0  0  0  0  0  0  0  0  0  0  0  0
   11.5019   14.7744   -1.1217 C   0  0  0  0  0  0  0  0  0  0  0  0
   12.6562   14.8080   -0.1079 C   0  0  0  0  0  0  0  0  0  0  0  0
  2  1  1  0
  3  2  1  0
  4  3  1  0
  5  4  1  0
  6  5  1  0
  6  1  1  0
  7  5  1  0
  8  7  1  0
  9  8  2  0
 10  8  1  0
 11 10  1  0
 12 11  2  0
 13 11  1  0
 14 12  1  0
 15 13  2  0
 16 15  1  0
 16 14  2  0
 17 16  1  0
 18 17  1  0
 19 18  2  0
 20 18  1  0
 21 20  1  0
 22 21  2  0
 23 21  1  0
 24 22  1  0
 25 23  2  0
 26 25  1  0
 26 24  2  0
 27 26  1  0
 28 27  1  0
 29 28  1  0
 30 29  1  0
 31 30  1  0
M  END
>  <SMILES>  (8) 
CCCCOc1ccc(NC(=O)Nc2ccc(NC(=O)NC3CCCCC3)cc2)cc1

>  <scaffold>  (8) 
cyclohexane

$$$$

     RDKit          3D

 24 25  0  0  0  0  0  0  0  0999 V2000
    0.0000    0.0000    0.0000 C   0  0  0  0  0  0  0  0  0  0  0  0
   -0.0000   -0.0000    1.5279 C   0  0  0  0  0  0  0  0  0  0  0  0
    1.4333   -0.0000    2.0570 C   0  0  0  0  0  0  0  0  0  0  0  0
    2.1739    1.2355    1.5477 C   0  0  0  0  0  0  0  0  0  0  0  0
    0.7406    1.2355   -0.5093 C   0  0  0  0  0  0  0  0  0  0  0  0
    2.1893    1.2355    0.0029 C   0  0  0  0  0  0  0  0  0  0  0  0
    2.8261    2.4358   -0.4573 N   0  0  0  0  0  0  0  0  0  0  0  0
    3.8438    2.4326   -1.2448 N   0  0  0  0  0  0  0  0  0  0  0  0
    2.4069    3.6201   -0.0897 N   0  0  0  0  0  0  0  0  0  0  0  0
    4.1059    3.6781   -1.4785 N   0  0  0  0  0  0  0  0  0  0  0  0
    3.2209    4.4011   -0.7685 C   0  0  0  0  0  0  0  0  0  0  0  0
    3.1769    5.7574   -0.6458 N   0  0  0  0  0  0  0  0  0  0  0  0
    3.7914    6.6936   -1.4492 C   0  0  0  0  0  0  0  0  0  0  0  0
    3.6876    7.8579   -1.1720 O   0  0  0  0  0  0  0  0  0  0  0  0
    4.4359    6.1444   -2.4573 O   0  0  0  0  0  0  0  0  0  0  0  0
    5.1650    7.0116   -3.3373 C   0  0  0  0  0  0  0  0  0  0  0  0
    6.4940    7.4628   -2.7335 C   0  0  0  0  0  0  0  0  0  0  0  0
    7.2543    8.3375   -3.7292 C   0  0  0  0  0  0  0  0  0  0  0  0
    8.6177    8.7709   -3.1931 C   0  0  0  0  0  0  0  0  0  0  0  0
    9.3580    9.5954   -4.2450 C   0  0  0  0  0  0  0  0  0  0  0  0
   10.7076   10.1002   -3.7368 C   0  0  0  0  0  0  0  0  0  0  0  0
   11.4687   10.9821   -4.7390 C   0  0  0  0  0  0  0  0  0  0  0  0
   12.7839   11.5045   -4.1631 C   0  0  0  0  0  0  0  0  0  0  0  0
   13.5214   12.3235   -5.2086 C   0  0  0  0  0  0  0  0  0  0  0  0
  2  1  1  0
  3  2  1  0
  4  3  1  0
  5  1  1  0
  6  5  1  0
  6  4  1  0
  7  6  1  0
  8  7  1  0
  9  7  1  0
 10  8  2  0
 11 10  1  0
 11  9  2  0
 12 11  1  0
 13 12  1  0
 14 13  2  0
 15 13  1  0
 16 15  1  0
 17 16  1  0
 18 17  1  0
 19 18  1  0
 20 19  1  0
 21 20  1  0
 22 21  1  0
 23 22  1  0
 24 23  1  0
M  END
>  <SMILES>  (9) 
CCCCCCCCCOC(=O)Nc1nnn(C2CCCCC2)n1

>  <scaffold>  (9) 
cyclohexane

$$$$

     RDKit          3D

 26 28  0  0  0  0  0  0  0  0999 V2000
   -0.0000   -0.0000    0.0000 C   0  0  0  0  0  0  0  0  0  0  0  0
   -0.0000   -0.0000    1.5279 C   0  0  0  0  0  0  0  0  0  0  0  0
    1.4333    0.0000    2.0570 C   0  0  0  0  0  0  0  0  0  0  0  0
    0.7869    1.1777   -0.5729 C   0  0  0  0  0  0  0  0  0  0  0  0
    2.2256    1.1070   -0.0637 C   0  0  0  0  0  0  0  0  0  0  0  0
    2.2202    1.1777    1.4840 C   0  0  0  0  0  0  0  0  0  0  0  0
    2.9343    2.1988   -0.6668 N   0  0  0  0  0  0  0  0  0  0  0  0
    2.6635    3.4816   -0.5466 N   0  0  0  0  0  0  0  0  0  0  0  0
    4.0119    1.9644   -1.4133 N   0  0  0  0  0  0  0  0  0  0  0  0
    3.4864    4.1667   -1.2733 N   0  0  0  0  0  0  0  0  0  0  0  0
    4.2955    3.2092   -1.7920 C   0  0  0  0  0  0  0  0  0  0  0  0
    5.3738    3.5235   -2.5496 N   0  0  0  0  0  0  0  0  0  0  0  0
    5.4283    4.8011   -3.2179 C   0  0  0  0  0  0  0  0  0  0  0  0
    4.4934    4.8850   -4.4013 C   0  0  0  0  0  0  0  0  0  0  0  0
    4.1432    3.7827   -5.1653 C   0  0  0  0  0  0  0  0  0  0  0  0
    3.8974    6.0944   -4.7559 C   0  0  0  0  0  0  0  0  0  0  0  0
    3.3616    3.9107   -6.2170 N   0  0  0  0  0  0  0  0  0  0  0  0
    3.0728    6.2306   -5.8618 C   0  0  0  0  0  0  0  0  0  0  0  0
    2.8759    5.0925   -6.5921 C   0  0  0  0  0  0  0  0  0  0  0  0
    2.1259    5.1056   -7.7203 O   0  0  0  0  0  0  0  0  0  0  0  0
    1.4219    6.2584   -8.1527 C   0  0  0  0  0  0  0  0  0  0  0  0
    0.1646    6.4834   -7.3142 C   0  0  0  0  0  0  0  0  0  0  0  0
   -0.6598    7.6841   -7.7757 C   0  0  0  0  0  0  0  0  0  0  0  0
    0.0371    9.0257   -7.5546 C   0  0  0  0  0  0  0  0  0  0  0  0
   -0.8494   10.1945   -7.9814 C   0  0  0  0  0  0  0  0  0  0  0  0
   -0.2188   11.5632   -7.7294 C   0  0  0  0  0  0  0  0  0  0  0  0
  2  1  1  0
  3  2  1  0
  4  1  1  0
  5  4  1  0
  6  5  1  0
  6  3  1  0
  7  5  1  0
  8  7  1  0
  9  7  1  0
 10  8  2  0
 11 10  1  0
 11  9  2  0
 12 11  1  0
 13 12  1  0
 14 13  1  0
 15 14  2  0
 16 14  1  0
 17 15  1  0
 18 16  2  0
 19 17  2  0
 19 18  1  0
 20 19  1  0
 21 20  1  0
 22 21  1  0
 23 22  1  0
 24 23  1  0
 25 24  1  0
 26 25  1  0
M  END
>  <SMILES>  (10) 
CCCCCCOc1ccc(CNc2nnn(C3CCCCC3)n2)cn1

>  <scaffold>  (10) 
cyclohexane

$$$$

     RDKit          3D

 21 23  0  0  0  0  0  0  0  0999 V2000
   -0.0000    0.0000   -0.0000 C   0  0  0  0  0  0  0  0  0  0  0  0
    0.0000    0.0000    1.5279 C   0  0  0  0  0  0  0  0  0  0  0  0
    1.4333    0.0000    2.0570 C   0  0  0  0  0  0  0  0  0  0  0  0
    0.7406   -1.2355   -0.5093 C   0  0  0  0  0  0  0  0  0  0  0  0
    2.1810   -1.2355   -0.0000 C   0  0  0  0  0  0  0  0  0  0  0  0
    2.1739   -1.2355    1.5477 C   0  0  0  0  0  0  0  0  0  0  0  0
    2.9034   -2.4050   -0.4108 N   0  0  0  0  0  0  0  0  0  0  0  0
    3.7496   -2.4648   -1.4571 C   0  0  0  0  0  0  0  0  0  0  0  0
    2.7483   -3.5729    0.1934 N   0  0  0  0  0  0  0  0  0  0  0  0
    4.1636   -3.7953   -1.4994 C   0  0  0  0  0  0  0  0  0  0  0  0
    3.5087   -4.4586   -0.4476 C   0  0  0  0  0  0  0  0  0  0  0  0
    5.0584   -4.2954   -2.3613 N   0  0  0  0  0  0  0  0  0  0  0  0
    3.6205   -5.8607    0.0006 C   0  0  0  0  0  0  0  0  0  0  0  0
    4.3171   -6.7336   -0.4785 O   0  0  0  0  0  0  0  0  0  0  0  0
    2.8552   -6.0429    1.1035 N   0  0  0  0  0  0  0  0  0  0  0  0
    2.7369   -7.2111    1.8550 C   0  0  0  0  0  0  0  0  0  0  0  0
    3.2848   -8.4436    1.5351 C   0  0  0  0  0  0  0  0  0  0  0  0
    2.0109   -7.1257    3.0421 C   0  0  0  0  0  0  0  0  0  0  0  0
    3.0994   -9.5845    2.2857 C   0  0  0  0  0  0  0  0  0  0  0  0
    1.8246   -8.2728    3.7977 C   0  0  0  0  0  0  0  0  0  0  0  0
    2.3176   -9.5124    3.4377 C   0  0  0  0  0  0  0  0  0  0  0  0
  2  1  1  0
  3  2  1  0
  4  1  1  0
  5  4  1  0
  6  5  1  0
  6  3  1  0
  7  5  1  0
  8  7  1  0
  9  7  1  0
 10  8  2  0
 11 10  1  0
 11  9  2  0
 12 10  1  0
 13 11  1  0
 14 13  2  0
 15 13  1  0
 16 15  1  0
 17 16  2  0
 18 16  1  0
 19 17  1  0
 20 18  2  0
 21 20  1  0
 21 19  2  0
M  END
>  <SMILES>  (11) 
Nc1cn(C2CCCCC2)nc1C(=O)Nc1ccccc1

>  <scaffold>  (11) 
cyclohexane

$$$$

     RDKit          3D

 26 28  0  0  0  0  0  0  0  0999 V2000
   -0.0000    0.0000    0.0000 C   0  0  0  0  0  0  0  0  0  0  0  0
    0.0000    0.0000    1.5279 C   0  0  0  0  0  0  0  0  0  0  0  0
    1.4333    0.0000    2.0570 C   0  0  0  0  0  0  0  0  0  0  0  0
    0.7869   -1.1777   -0.5729 C   0  0  0  0  0  0  0  0  0  0  0  0
    2.2202   -1.1777    1.4840 C   0  0  0  0  0  0  0  0  0  0  0  0
    2.2404   -1.0871   -0.0498 C   0  0  0  0  0  0  0  0  0  0  0  0
    3.0843   -2.1011   -0.6343 N   0  0  0  0  0  0  0  0  0  0  0  0
    4.2762   -1.8459   -1.2256 C   0  0  0  0  0  0  0  0  0  0  0  0
    4.7608   -0.7361   -1.3263 O   0  0  0  0  0  0  0  0  0  0  0  0
    4.9574   -3.0166   -1.8128 C   0  0  0  0  0  0  0  0  0  0  0  0
    5.9250   -2.9556   -2.7924 C   0  0  0  0  0  0  0  0  0  0  0  0
    4.7504   -4.3825   -1.4577 C   0  0  0  0  0  0  0  0  0  0  0  0
    6.3369   -4.2084   -3.0262 O   0  0  0  0  0  0  0  0  0  0  0  0
    5.6421   -5.0375   -2.2396 C   0  0  0  0  0  0  0  0  0  0  0  0
    6.4770   -1.7815   -3.5489 C   0  0  0  0  0  0  0  0  0  0  0  0
    5.9385   -6.3987   -2.2932 N   0  0  0  0  0  0  0  0  0  0  0  0
    5.4110   -7.3673   -1.4931 C   0  0  0  0  0  0  0  0  0  0  0  0
    4.6043   -7.1129   -0.6304 O   0  0  0  0  0  0  0  0  0  0  0  0
    5.9576   -8.7448   -1.7364 C   0  0  0  0  0  0  0  0  0  0  0  0
    6.3395   -9.1805   -2.9957 C   0  0  0  0  0  0  0  0  0  0  0  0
    6.0617   -9.6055   -0.6447 C   0  0  0  0  0  0  0  0  0  0  0  0
    6.7788  -10.4910   -3.1010 C   0  0  0  0  0  0  0  0  0  0  0  0
    6.5139  -10.9027   -0.8292 C   0  0  0  0  0  0  0  0  0  0  0  0
    6.8692  -11.4010   -2.0593 C   0  0  0  0  0  0  0  0  0  0  0  0
    6.6446  -11.6876    0.2672 F   0  0  0  0  0  0  0  0  0  0  0  0
    7.3815  -12.7937   -2.1097 C   0  0  0  0  0  0  0  0  0  0  0  0
  2  1  1  0
  3  2  1  0
  4  1  1  0
  5  3  1  0
  6  5  1  0
  6  4  1  0
  7  6  1  0
  8  7  1  0
  9  8  2  0
 10  8  1  0
 11 10  2  0
 12 10  1  0
 13 11  1  0
 14 12  2  0
 14 13  1  0
 15 11  1  0
 16 14  1  0
 17 16  1  0
 18 17  2  0
 19 17  1  0
 20 19  2  0
 21 19  1  0
 22 20  1  0
 23 21  2  0
 24 23  1  0
 24 22  2  0
 25 23  1  0
 26 24  1  0
M  END
>  <SMILES>  (12) 
Cc1ccc(C(=O)Nc2cc(C(=O)NC3CCCCC3)c(C)o2)cc1F

>  <scaffold>  (12) 
cyclohexane

$$$$

     RDKit          3D

 25 27  0  0  0  0  0  0  0  0999 V2000
   -0.0000   -0.0000   -0.0000 C   0  0  0  0  0  0  0  0  0  0  0  0
   -0.0000    0.0000    1.5279 C   0  0  0  0  0  0  0  0  0  0  0  0
    1.4333    0.0000    2.0570 C   0  0  0  0  0  0  0  0  0  0  0  0
    2.1739   -1.2355    1.5477 C   0  0  0  0  0  0  0  0  0  0  0  0
    0.7406   -1.2355   -0.5093 C   0  0  0  0  0  0  0  0  0  0  0  0
    2.1950   -1.2410    0.0200 C   0  0  0  0  0  0  0  0  0  0  0  0
    2.9297   -2.3645   -0.5089 N   0  0  0  0  0  0  0  0  0  0  0  0
    4.1242   -2.2663   -1.1067 C   0  0  0  0  0  0  0  0  0  0  0  0
    4.6589   -1.1674   -1.2931 O   0  0  0  0  0  0  0  0  0  0  0  0
    4.7341   -3.5434   -1.5266 C   0  0  0  0  0  0  0  0  0  0  0  0
    4.0986   -4.6787   -1.2425 N   0  0  0  0  0  0  0  0  0  0  0  0
    5.9435   -3.5679   -2.2034 C   0  0  0  0  0  0  0  0  0  0  0  0
    4.5822   -5.8372   -1.6389 C   0  0  0  0  0  0  0  0  0  0  0  0
    6.4527   -4.7877   -2.6208 C   0  0  0  0  0  0  0  0  0  0  0  0
    5.7676   -5.9333   -2.3663 C   0  0  0  0  0  0  0  0  0  0  0  0
    6.1409   -7.1894   -2.7673 O   0  0  0  0  0  0  0  0  0  0  0  0
    7.4331   -7.3664   -3.3245 C   0  0  0  0  0  0  0  0  0  0  0  0
    8.5686   -7.2090   -2.3277 C   0  0  0  0  0  0  0  0  0  0  0  0
    9.8556   -6.9679   -2.7826 C   0  0  0  0  0  0  0  0  0  0  0  0
    8.3820   -7.3260   -0.9591 C   0  0  0  0  0  0  0  0  0  0  0  0
   10.9310   -6.8667   -1.9138 C   0  0  0  0  0  0  0  0  0  0  0  0
    9.4580   -7.2234   -0.0913 C   0  0  0  0  0  0  0  0  0  0  0  0
   10.7561   -7.0044   -0.5457 C   0  0  0  0  0  0  0  0  0  0  0  0
   12.0780   -6.9492    0.5890 Cl  0  0  0  0  0  0  0  0  0  0  0  0
    9.3323   -7.3774    1.2332 O   0  0  0  0  0  0  0  0  0  0  0  0
  2  1  1  0
  3  2  1  0
  4  3  1  0
  5  1  1  0
  6  5  1  0
  6  4  1  0
  7  6  1  0
  8  7  1  0
  9  8  2  0
 10  8  1  0
 11 10  2  0
 12 10  1  0
 13 11  1  0
 14 12  2  0
 15 13  2  0
 15 14  1  0
 16 15  1  0
 17 16  1  0
 18 17  1  0
 19 18  2  0
 20 18  1  0
 21 19  1  0
 22 20  2  0
 23 22  1  0
 23 21  2  0
 24 23  1  0
 25 22  1  0
M  END
>  <SMILES>  (13) 
O=C(NC1CCCCC1)c1ccc(OCc2ccc(Cl)c(O)c2)cn1

>  <scaffold>  (13) 
cyclohexane

$$$$

     RDKit          3D

 16 17  0  0  0  0  0  0  0  0999 V2000
    0.0000   -0.0000    0.0000 C   0  0  0  0  0  0  0  0  0  0  0  0
    0.0000    0.0000    1.5279 C   0  0  0  0  0  0  0  0  0  0  0  0
    1.4333    0.0000    2.0570 C   0  0  0  0  0  0  0  0  0  0  0  0
    0.7406   -1.2355   -0.5093 C   0  0  0  0  0  0  0  0  0  0  0  0
    2.1739   -1.2355    1.5477 C   0  0  0  0  0  0  0  0  0  0  0  0
    2.1810   -1.2355   -0.0000 C   0  0  0  0  0  0  0  0  0  0  0  0
    2.9418   -2.3654   -0.5006 N   0  0  0  0  0  0  0  0  0  0  0  0
    4.0443   -2.2245   -1.2616 C   0  0  0  0  0  0  0  0  0  0  0  0
    4.5110   -1.1373   -1.5385 O   0  0  0  0  0  0  0  0  0  0  0  0
    4.6445   -3.5126   -1.7203 C   0  0  0  0  0  0  0  0  0  0  0  0
    6.0174   -3.7825   -1.6297 C   0  0  0  0  0  0  0  0  0  0  0  0
    3.8362   -4.4729   -2.3451 C   0  0  0  0  0  0  0  0  0  0  0  0
    6.5889   -4.8703   -2.0589 N   0  0  0  0  0  0  0  0  0  0  0  0
    4.4370   -5.6120   -2.7902 C   0  0  0  0  0  0  0  0  0  0  0  0
    5.8205   -5.7984   -2.6261 C   0  0  0  0  0  0  0  0  0  0  0  0
    6.9387   -2.7673   -1.0595 C   0  0  0  0  0  0  0  0  0  0  0  0
  2  1  1  0
  3  2  1  0
  4  1  1  0
  5  3  1  0
  6  5  1  0
  6  4  1  0
  7  6  1  0
  8  7  1  0
  9  8  2  0
 10  8  1  0
 11 10  2  0
 12 10  1  0
 13 11  1  0
 14 12  2  0
 15 14  1  0
 15 13  2  0
 16 11  1  0
M  END
>  <SMILES>  (14) 
Cc1ncccc1C(=O)NC1CCCCC1

>  <scaffold>  (14) 
cyclohexane

$$$$

     RDKit          3D

 23 25  0  0  0  0  0  0  0  0999 V2000
    0.0000   -0.0000    0.0000 C   0  0  0  0  0  0  0  0  0  0  0  0
    0.0000   -0.0000    1.5279 C   0  0  0  0  0  0  0  0  0  0  0  0
    1.4333    0.0000    2.0570 C   0  0  0  0  0  0  0  0  0  0  0  0
    0.7406    1.2355   -0.5093 C   0  0  0  0  0  0  0  0  0  0  0  0
    2.1552    1.3050    0.0637 C   0  0  0  0  0  0  0  0  0  0  0  0
    2.1089    1.2530    1.5987 C   0  0  0  0  0  0  0  0  0  0  0  0
    2.7903    2.5045   -0.4011 N   0  0  0  0  0  0  0  0  0  0  0  0
    3.8548    2.5090   -1.1500 N   0  0  0  0  0  0  0  0  0  0  0  0
    2.3065    3.7062   -0.0921 N   0  0  0  0  0  0  0  0  0  0  0  0
    4.1016    3.7385   -1.4038 N   0  0  0  0  0  0  0  0  0  0  0  0
    3.1463    4.4881   -0.7529 C   0  0  0  0  0  0  0  0  0  0  0  0
    3.0496    5.8230   -0.8041 N   0  0  0  0  0  0  0  0  0  0  0  0
    2.1765    6.5768    0.0627 C   0  0  0  0  0  0  0  0  0  0  0  0
    1.6684    7.8252   -0.5997 C   0  0  0  0  0  0  0  0  0  0  0  0
    1.6734    9.0405    0.0670 C   0  0  0  0  0  0  0  0  0  0  0  0
    1.1552    7.7154   -1.8913 C   0  0  0  0  0  0  0  0  0  0  0  0
    1.1488   10.1557   -0.5674 C   0  0  0  0  0  0  0  0  0  0  0  0
    0.6324    8.8247   -2.5202 C   0  0  0  0  0  0  0  0  0  0  0  0
    0.6111   10.1341   -1.8449 C   0  0  0  0  0  0  0  0  0  0  0  0
    0.1844    8.6792   -3.8071 F   0  0  0  0  0  0  0  0  0  0  0  0
   -0.0043   11.3810   -2.4780 C   0  0  0  0  0  0  0  0  0  0  0  0
   -1.4942   11.1739   -2.7455 C   0  0  0  0  0  0  0  0  0  0  0  0
    0.7803   11.8039   -3.7082 C   0  0  0  0  0  0  0  0  0  0  0  0
  2  1  1  0
  3  2  1  0
  4  1  1  0
  5  4  1  0
  6  5  1  0
  6  3  1  0
  7  5  1  0
  8  7  1  0
  9  7  1  0
 10  8  2  0
 11 10  1  0
 11  9  2  0
 12 11  1  0
 13 12  1  0
 14 13  1  0
 15 14  2  0
 16 14  1  0
 17 15  1  0
 18 16  2  0
 19 18  1  0
 19 17  2  0
 20 18  1  0
 21 19  1  0
 22 21  1  0
 23 21  1  0
M  END
>  <SMILES>  (15) 
CC(C)c1ccc(CNc2nnn(C3CCCCC3)n2)cc1F

>  <scaffold>  (15) 
cyclohexane

$$$$

     RDKit          3D

 31 33  0  0  0  0  0  0  0  0999 V2000
    0.0000   -0.0000   -0.0000 C   0  0  0  0  0  0  0  0  0  0  0  0
    0.0000   -0.0000    1.5279 C   0  0  0  0  0  0  0  0  0  0  0  0
    1.4333   -0.0000    2.0570 C   0  0  0  0  0  0  0  0  0  0  0  0
    2.1739    1.2355    1.5477 C   0  0  0  0  0  0  0  0  0  0  0  0
    2.1950    1.2410    0.0200 C   0  0  0  0  0  0  0  0  0  0  0  0
    0.7660    1.2448   -0.5208 C   0  0  0  0  0  0  0  0  0  0  0  0
    0.7337    1.3023   -1.9704 N   0  0  0  0  0  0  0  0  0  0  0  0
    0.4510    2.4480   -2.6671 C   0  0  0  0  0  0  0  0  0  0  0  0
    0.0919    3.4997   -2.1586 O   0  0  0  0  0  0  0  0  0  0  0  0
    0.6231    2.3139   -4.0042 N   0  0  0  0  0  0  0  0  0  0  0  0
    0.2295    3.3402   -4.9516 C   0  0  1  0  0  0  0  0  0  0  0  0
    1.3195    3.5999   -5.9903 C   0  0  0  0  0  0  0  0  0  0  0  0
   -1.0385    2.9632   -5.6444 C   0  0  0  0  0  0  0  0  0  0  0  0
   -2.3135    3.1877   -5.2195 C   0  0  0  0  0  0  0  0  0  0  0  0
   -1.0515    2.0229   -7.1000 S   0  0  0  0  0  0  0  0  0  0  0  0
   -3.2800    2.6558   -6.0849 C   0  0  0  0  0  0  0  0  0  0  0  0
   -2.7831    1.9973   -7.1659 C   0  0  0  0  0  0  0  0  0  0  0  0
   -3.5862    1.2835   -8.1782 C   0  0  0  0  0  0  0  0  0  0  0  0
   -4.7980    1.3707   -8.1588 O   0  0  0  0  0  0  0  0  0  0  0  0
   -2.8637    0.5653   -9.0713 N   0  0  0  0  0  0  0  0  0  0  0  0
   -3.5167   -0.3045  -10.0193 C   0  0  0  0  0  0  0  0  0  0  0  0
   -3.2762   -1.7249   -9.6264 C   0  0  0  0  0  0  0  0  0  0  0  0
   -4.0120   -2.4851   -8.7677 C   0  0  0  0  0  0  0  0  0  0  0  0
   -1.9304   -2.6060  -10.2976 S   0  0  0  0  0  0  0  0  0  0  0  0
   -3.4767   -3.7754   -8.5751 C   0  0  0  0  0  0  0  0  0  0  0  0
   -2.3331   -4.0013   -9.3338 C   0  0  0  0  0  0  0  0  0  0  0  0
   -1.4687   -5.2285   -9.3818 C   0  0  1  0  0  0  0  0  0  0  0  0
   -1.4724   -5.7437  -10.8202 C   0  0  0  0  0  0  0  0  0  0  0  0
   -0.0703   -4.8306   -8.9122 C   0  0  0  0  0  0  0  0  0  0  0  0
    0.8092   -6.0647   -8.8059 C   0  0  0  0  0  0  0  0  0  0  0  0
    2.2058   -5.6078   -8.3873 C   0  0  0  0  0  0  0  0  0  0  0  0
  2  1  1  0
  3  2  1  0
  4  3  1  0
  5  4  1  0
  6  5  1  0
  6  1  1  0
  7  6  1  0
  8  7  1  0
  9  8  2  0
 10  8  1  0
 11 10  1  0
 11 12  1  6
 13 11  1  0
 14 13  1  0
 15 13  2  0
 16 14  2  0
 17 16  1  0
 17 15  1  0
 18 17  2  0
 19 18  1  0
 20 18  1  0
 21 20  1  0
 22 21  1  0
 23 22  2  0
 24 22  1  0
 25 23  1  0
 26 25  2  0
 26 24  1  0
 27 26  1  0
 27 28  1  6
 29 27  1  0
 30 29  1  0
 31 30  1  0
M  CHG  2  15   1  19  -1
M  END
>  <SMILES>  (16) 
CCCC(C)c1ccc(CNC([O-])=C2C=CC(C(C)NC(=O)NC3CCCCC3)=[S+]2)s1

>  <scaffold>  (16) 
cyclohexane

$$$$

     RDKit          3D

 21 23  0  0  0  0  0  0  0  0999 V2000
    0.0000   -0.0000   -0.0000 C   0  0  0  0  0  0  0  0  0  0  0  0
    0.0000    0.0000    1.5279 C   0  0  0  0  0  0  0  0  0  0  0  0
    1.4244    0.0000    2.0805 C   0  0  0  0  0  0  0  0  0  0  0  0
    2.2158    1.1844    1.5042 C   0  0  0  0  0  0  0  0  0  0  0  0
    0.7869    1.1777   -0.5729 C   0  0  0  0  0  0  0  0  0  0  0  0
    2.1938    1.1581   -0.0320 C   0  0  0  0  0  0  0  0  0  0  0  0
    3.5463    1.4037    2.0627 N   0  0  0  0  0  0  0  0  0  0  0  0
    4.5178    0.3081    1.9605 C   0  0  0  0  0  0  0  0  0  0  0  0
    5.9348    0.7131    2.2011 C   0  0  0  0  0  0  0  0  0  0  0  0
    6.8648    1.3080    1.4025 C   0  0  0  0  0  0  0  0  0  0  0  0
    6.4334    0.5062    3.4521 O   0  0  0  0  0  0  0  0  0  0  0  0
    7.9936    1.4819    2.2021 C   0  0  0  0  0  0  0  0  0  0  0  0
    7.6954    0.9982    3.4246 C   0  0  0  0  0  0  0  0  0  0  0  0
    8.4851    0.8520    4.6332 C   0  0  0  0  0  0  0  0  0  0  0  0
    9.7984    1.2957    4.6360 C   0  0  0  0  0  0  0  0  0  0  0  0
    7.9388    0.2252    5.7622 C   0  0  0  0  0  0  0  0  0  0  0  0
   10.5014    1.1795    5.8342 C   0  0  0  0  0  0  0  0  0  0  0  0
    8.6290    0.1083    6.9403 C   0  0  0  0  0  0  0  0  0  0  0  0
   10.0036    0.6607    7.0193 C   0  0  0  0  0  0  0  0  0  0  0  0
   10.5673    0.5448    8.2544 O   0  0  0  0  0  0  0  0  0  0  0  0
   11.8817    1.0551    8.2740 C   0  0  0  0  0  0  0  0  0  0  0  0
  2  1  1  0
  3  2  1  0
  4  3  1  0
  5  1  1  0
  6  5  1  0
  6  4  1  0
  7  4  1  0
  8  7  1  0
  9  8  1  0
 10  9  2  0
 11  9  1  0
 12 10  1  0
 13 12  2  0
 13 11  1  0
 14 13  1  0
 15 14  2  0
 16 14  1  0
 17 15  1  0
 18 16  2  0
 19 18  1  0
 19 17  2  0
 20 19  1  0
 21 20  1  0
M  END
>  <SMILES>  (17) 
COc1ccc(-c2ccc(CNC3CCCCC3)o2)cc1

>  <scaffold>  (17) 
cyclohexane

$$$$

     RDKit          3D

 22 24  0  0  0  0  0  0  0  0999 V2000
    0.0000    0.0000   -0.0000 C   0  0  0  0  0  0  0  0  0  0  0  0
    0.0000    0.0000    1.5279 C   0  0  0  0  0  0  0  0  0  0  0  0
    1.4333    0.0000    2.0570 C   0  0  0  0  0  0  0  0  0  0  0  0
    2.2202    1.1777    1.4840 C   0  0  0  0  0  0  0  0  0  0  0  0
    0.7406    1.2355   -0.5093 C   0  0  0  0  0  0  0  0  0  0  0  0
    2.1893    1.2355    0.0029 C   0  0  0  0  0  0  0  0  0  0  0  0
    2.8261    2.4358   -0.4573 N   0  0  0  0  0  0  0  0  0  0  0  0
    3.2153    2.5623   -1.7246 N   0  0  0  0  0  0  0  0  0  0  0  0
    3.0598    3.4239    0.3210 N   0  0  0  0  0  0  0  0  0  0  0  0
    3.6883    3.7657   -1.7763 C   0  0  0  0  0  0  0  0  0  0  0  0
    3.6077    4.3626   -0.4747 O   0  0  0  0  0  0  0  0  0  0  0  0
    4.2050    4.4544   -2.9548 C   0  0  0  0  0  0  0  0  0  0  0  0
    4.6375    5.7699   -2.8926 C   0  0  0  0  0  0  0  0  0  0  0  0
    4.2623    3.7594   -4.1527 C   0  0  0  0  0  0  0  0  0  0  0  0
    5.0715    6.3940   -4.0422 C   0  0  0  0  0  0  0  0  0  0  0  0
    4.6965    4.3832   -5.3024 C   0  0  0  0  0  0  0  0  0  0  0  0
    5.1023    5.7660   -5.2954 C   0  0  0  0  0  0  0  0  0  0  0  0
    5.4850    6.4235   -6.3884 F   0  0  0  0  0  0  0  0  0  0  0  0
    4.7816    3.6512   -6.4393 O   0  0  0  0  0  0  0  0  0  0  0  0
    5.5510    7.6692   -4.0205 O   0  0  0  0  0  0  0  0  0  0  0  0
    5.3509    8.5368   -2.9166 C   0  0  0  0  0  0  0  0  0  0  0  0
    3.9022    9.0118   -2.8154 C   0  0  0  0  0  0  0  0  0  0  0  0
  2  1  1  0
  3  2  1  0
  4  3  1  0
  5  1  1  0
  6  5  1  0
  6  4  1  0
  7  6  1  0
  8  7  1  0
  9  7  1  0
 10  8  2  0
 11 10  1  0
 11  9  2  0
 12 10  1  0
 13 12  2  0
 14 12  1  0
 15 13  1  0
 16 14  2  0
 17 16  1  0
 17 15  2  0
 18 17  1  0
 19 16  1  0
 20 15  1  0
 21 20  1  0
 22 21  1  0
M  CHG  2  11   1  19  -1
M  END
>  <SMILES>  (18) 
CCOc1cc(-c2nn(C3CCCCC3)n[o+]2)cc([O-])c1F

>  <scaffold>  (18) 
cyclohexane

$$$$

     RDKit          3D

 29 31  0  0  0  0  0  0  0  0999 V2000
   -0.0000    0.0000    0.0000 C   0  0  0  0  0  0  0  0  0  0  0  0
    0.0000    0.0000    1.5279 C   0  0  0  0  0  0  0  0  0  0  0  0
    1.4333    0.0000    2.0570 C   0  0  0  0  0  0  0  0  0  0  0  0
    2.1739   -1.2355    1.5477 C   0  0  0  0  0  0  0  0  0  0  0  0
    0.7406   -1.2355   -0.5093 C   0  0  0  0  0  0  0  0  0  0  0  0
    2.1259   -1.3108    0.0136 C   0  0  0  0  0  0  0  0  0  0  0  0
    2.8032   -2.5379   -0.4224 N   0  0  0  0  0  0  0  0  0  0  0  0
    4.1885   -2.5651   -0.4643 C   0  0  0  0  0  0  0  0  0  0  0  0
    4.7872   -1.5681   -0.1371 O   0  0  0  0  0  0  0  0  0  0  0  0
    4.7717   -3.7086   -0.9215 N   0  0  0  0  0  0  0  0  0  0  0  0
    6.1105   -4.0798   -1.0367 C   0  0  0  0  0  0  0  0  0  0  0  0
    7.1411   -3.2234   -0.6520 C   0  0  0  0  0  0  0  0  0  0  0  0
    6.4473   -5.3186   -1.6006 C   0  0  0  0  0  0  0  0  0  0  0  0
    8.4277   -3.7268   -0.7650 C   0  0  0  0  0  0  0  0  0  0  0  0
    7.7334   -5.8217   -1.7200 C   0  0  0  0  0  0  0  0  0  0  0  0
    8.7868   -4.9941   -1.2216 C   0  0  0  0  0  0  0  0  0  0  0  0
    9.6546   -2.6478   -0.2180 Cl  0  0  0  0  0  0  0  0  0  0  0  0
   10.1102   -5.3611   -1.3385 O   0  0  0  0  0  0  0  0  0  0  0  0
   10.5936   -6.6091   -1.7287 C   0  0  0  0  0  0  0  0  0  0  0  0
   10.2919   -7.5819   -0.5898 C   0  0  0  0  0  0  0  0  0  0  0  0
    9.8989   -7.4158    0.5258 O   0  0  0  0  0  0  0  0  0  0  0  0
   10.5946   -8.7950   -1.0910 O   0  0  0  0  0  0  0  0  0  0  0  0
   10.3532   -9.8756   -0.2572 C   0  0  0  0  0  0  0  0  0  0  0  0
   10.6902   -9.9623    1.0928 C   0  0  0  0  0  0  0  0  0  0  0  0
    9.8408  -10.9820   -0.9331 C   0  0  0  0  0  0  0  0  0  0  0  0
   10.4710  -11.0920    1.8798 C   0  0  0  0  0  0  0  0  0  0  0  0
    9.6323  -12.0916   -0.1564 C   0  0  0  0  0  0  0  0  0  0  0  0
    9.9340  -12.1909    1.2276 C   0  0  0  0  0  0  0  0  0  0  0  0
    9.6264  -13.3345    1.9015 O   0  0  0  0  0  0  0  0  0  0  0  0
  2  1  1  0
  3  2  1  0
  4  3  1  0
  5  1  1  0
  6  5  1  0
  6  4  1  0
  7  6  1  0
  8  7  1  0
  9  8  2  0
 10  8  1  0
 11 10  1  0
 12 11  2  0
 13 11  1  0
 14 12  1  0
 15 13  2  0
 16 15  1  0
 16 14  2  0
 17 14  1  0
 18 16  1  0
 19 18  1  0
 20 19  1  0
 21 20  2  0
 22 20  1  0
 23 22  1  0
 24 23  2  0
 25 23  1  0
 26 24  1  0
 27 25  2  0
 28 27  1  0
 28 26  2  0
 29 28  1  0
M  END
>  <SMILES>  (19) 
O=C(Nc1ccc(OCC(=O)Oc2ccc(O)cc2)c(Cl)c1)NC1CCCCC1

>  <scaffold>  (19) 
cyclohexane

$$$$

     RDKit          3D

 41 43  0  0  0  0  0  0  0  0999 V2000
    0.0000   -0.0000    0.0000 C   0  0  0  0  0  0  0  0  0  0  0  0
   -0.0000   -0.0000    1.5279 C   0  0  0  0  0  0  0  0  0  0  0  0
    1.4333   -0.0000    2.0570 C   0  0  0  0  0  0  0  0  0  0  0  0
    0.7869    1.1777   -0.5729 C   0  0  0  0  0  0  0  0  0  0  0  0
    2.1739    1.2355    1.5477 C   0  0  0  0  0  0  0  0  0  0  0  0
    2.1951    1.2410    0.0112 C   0  0  0  0  0  0  0  0  0  0  0  0
    2.9298    2.3645   -0.5177 N   0  0  0  0  0  0  0  0  0  0  0  0
    4.0467    2.3282   -1.2973 C   0  0  0  0  0  0  0  0  0  0  0  0
    2.5285    3.6117   -0.2397 N   0  0  0  0  0  0  0  0  0  0  0  0
    4.4212    3.6206   -1.5115 C   0  0  0  0  0  0  0  0  0  0  0  0
    3.4218    4.4018   -0.8150 C   0  0  0  0  0  0  0  0  0  0  0  0
    3.3161    5.8490   -0.7967 C   0  0  0  0  0  0  0  0  0  0  0  0
    2.1372    6.4726   -0.4489 C   0  0  0  0  0  0  0  0  0  0  0  0
    4.4112    6.6268   -1.1697 C   0  0  0  0  0  0  0  0  0  0  0  0
    1.9733    7.8570   -0.4650 C   0  0  0  0  0  0  0  0  0  0  0  0
    4.2482    7.9953   -1.1838 C   0  0  0  0  0  0  0  0  0  0  0  0
    3.0261    8.6620   -0.8433 C   0  0  0  0  0  0  0  0  0  0  0  0
    5.2644    8.8653   -1.4809 O   0  0  0  0  0  0  0  0  0  0  0  0
    3.0042   10.0243   -0.8480 O   0  0  0  0  0  0  0  0  0  0  0  0
    1.8171   10.6641   -0.4357 C   0  0  0  0  0  0  0  0  0  0  0  0
    6.5238    8.3724   -1.7847 C   0  0  0  0  0  0  0  0  0  0  0  0
    6.8002    7.9871   -2.8960 O   0  0  0  0  0  0  0  0  0  0  0  0
    7.3578    8.2953   -0.7199 N   0  0  0  0  0  0  0  0  0  0  0  0
    8.6880    7.7425   -0.8950 C   0  0  0  0  0  0  0  0  0  0  0  0
    6.9717    8.6923    0.6214 C   0  0  0  0  0  0  0  0  0  0  0  0
    7.1191   10.1946    0.8576 C   0  0  0  0  0  0  0  0  0  0  0  0
    6.6494   10.5673    2.2629 C   0  0  0  0  0  0  0  0  0  0  0  0
    6.7251   12.0611    2.5290 C   0  0  0  0  0  0  0  0  0  0  0  0
    6.2950   12.3761    3.9702 C   0  0  0  0  0  0  0  0  0  0  0  0
    6.4056   13.8625    4.3059 C   0  0  0  0  0  0  0  0  0  0  0  0
    6.0196   14.1142    5.7626 C   0  0  0  0  0  0  0  0  0  0  0  0
    6.1670   15.5893    6.1670 C   0  0  0  0  0  0  0  0  0  0  0  0
    5.8220   15.7777    7.6434 C   0  0  0  0  0  0  0  0  0  0  0  0
    5.9310   17.2640    7.9800 C   0  0  0  0  0  0  0  0  0  0  0  0
    5.6312   17.3910    9.4728 C   0  0  0  0  0  0  0  0  0  0  0  0
    5.8060   18.8799    9.7677 C   0  0  0  0  0  0  0  0  0  0  0  0
    5.5520   18.9436   11.2641 C   0  0  0  0  0  0  0  0  0  0  0  0
    5.7695   20.4131   11.6213 C   0  0  0  0  0  0  0  0  0  0  0  0
    5.5781   20.5210   13.1333 C   0  0  0  0  0  0  0  0  0  0  0  0
    5.8569   21.9819   13.4428 C   0  0  0  0  0  0  0  0  0  0  0  0
    5.7060   22.0244   14.9714 C   0  0  0  0  0  0  0  0  0  0  0  0
  2  1  1  0
  3  2  1  0
  4  1  1  0
  5  3  1  0
  6  5  1  0
  6  4  1  0
  7  6  1  0
  8  7  1  0
  9  7  1  0
 10  8  2  0
 11 10  1  0
 11  9  2  0
 12 11  1  0
 13 12  2  0
 14 12  1  0
 15 13  1  0
 16 14  1  0
 17 16  1  0
 17 15  2  0
 18 16  2  0
 19 17  1  0
 20 19  1  0
 21 18  1  0
 22 21  2  0
 23 21  1  0
 24 23  1  0
 25 23  1  0
 26 25  1  0
 27 26  1  0
 28 27  1  0
 29 28  1  0
 30 29  1  0
 31 30  1  0
 32 31  1  0
 33 32  1  0
 34 33  1  0
 35 34  1  0
 36 35  1  0
 37 36  1  0
 38 37  1  0
 39 38  1  0
 40 39  1  0
 41 40  1  0
M  CHG  2   6  -1  18   1
M  END
>  <SMILES>  (20) 
CCCCCCCCCCCCCCCCCN(C)C(=O)[O+]=C1CC(c2ccn([C-]3CCCCC3)n2)=CC=C1OC

>  <scaffold>  (20) 
cyclohexane

$$$$

     RDKit          3D

 33 35  0  0  0  0  0  0  0  0999 V2000
   -0.0000   -0.0000   -0.0000 C   0  0  0  0  0  0  0  0  0  0  0  0
   -0.0000   -0.0000    1.5279 C   0  0  0  0  0  0  0  0  0  0  0  0
    1.4333   -0.0000    2.0570 C   0  0  0  0  0  0  0  0  0  0  0  0
    2.1739    1.2355    1.5477 C   0  0  0  0  0  0  0  0  0  0  0  0
    0.7406    1.2355   -0.5093 C   0  0  0  0  0  0  0  0  0  0  0  0
    2.1950    1.2410    0.0200 C   0  0  0  0  0  0  0  0  0  0  0  0
    2.9339    2.3709   -0.5119 N   0  0  0  0  0  0  0  0  0  0  0  0
    4.0787    2.2775   -1.2304 C   0  0  0  0  0  0  0  0  0  0  0  0
    4.6071    1.2180   -1.5038 O   0  0  0  0  0  0  0  0  0  0  0  0
    4.7130    3.5672   -1.6354 C   0  0  0  0  0  0  0  0  0  0  0  0
    3.9367    4.6889   -1.9230 C   0  0  0  0  0  0  0  0  0  0  0  0
    6.1024    3.6467   -1.7185 C   0  0  0  0  0  0  0  0  0  0  0  0
    4.5676    5.8496   -2.3426 C   0  0  0  0  0  0  0  0  0  0  0  0
    6.7264    4.7942   -2.1330 C   0  0  0  0  0  0  0  0  0  0  0  0
    5.9398    5.9701   -2.4972 C   0  0  0  0  0  0  0  0  0  0  0  0
    8.5552    4.8148   -2.2838 S   0  0  0  0  0  6  0  0  0  0  0  0
    9.0698    3.5798   -1.7662 O   0  0  0  0  0  0  0  0  0  0  0  0
    9.0717    6.0370   -1.6961 O   0  0  0  0  0  0  0  0  0  0  0  0
    8.8783    4.8034   -4.0272 C   0  0  0  0  0  0  0  0  0  0  0  0
    9.3252    5.9173   -4.6724 C   0  0  0  0  0  0  0  0  0  0  0  0
    8.5422    3.6658   -4.7443 C   0  0  0  0  0  0  0  0  0  0  0  0
    9.5155    5.8744   -6.0367 C   0  0  0  0  0  0  0  0  0  0  0  0
    8.7282    3.6298   -6.1015 C   0  0  0  0  0  0  0  0  0  0  0  0
    9.2744    4.7408   -6.8115 C   0  0  0  0  0  0  0  0  0  0  0  0
    9.4722    4.5614   -8.1397 O   0  0  0  0  0  0  0  0  0  0  0  0
    9.9936    5.6947   -8.7972 C   0  0  0  0  0  0  0  0  0  0  0  0
    8.9322    6.7517   -9.0981 C   0  0  0  0  0  0  0  0  0  0  0  0
    9.5565    7.9792   -9.7600 C   0  0  0  0  0  0  0  0  0  0  0  0
    8.5436    9.0901  -10.0322 C   0  0  0  0  0  0  0  0  0  0  0  0
    9.2266   10.3128  -10.6430 C   0  0  0  0  0  0  0  0  0  0  0  0
    8.2641   11.4745  -10.8843 C   0  0  0  0  0  0  0  0  0  0  0  0
    9.0049   12.6881  -11.4437 C   0  0  0  0  0  0  0  0  0  0  0  0
    8.0108   13.8356  -11.6151 C   0  0  0  0  0  0  0  0  0  0  0  0
  2  1  1  0
  3  2  1  0
  4  3  1  0
  5  1  1  0
  6  5  1  0
  6  4  1  0
  7  6  1  0
  8  7  1  0
  9  8  2  0
 10  8  1  0
 11 10  2  0
 12 10  1  0
 13 11  1  0
 14 12  2  0
 15 13  2  0
 15 14  1  0
 16 14  1  0
 17 16  2  0
 18 16  2  0
 19 16  1  0
 20 19  2  0
 21 19  1  0
 22 20  1  0
 23 21  2  0
 24 23  1  0
 24 22  2  0
 25 24  1  0
 26 25  1  0
 27 26  1  0
 28 27  1  0
 29 28  1  0
 30 29  1  0
 31 30  1  0
 32 31  1  0
 33 32  1  0
M  END
>  <SMILES>  (21) 
CCCCCCCCOc1ccc(S(=O)(=O)c2cccc(C(=O)NC3CCCCC3)c2)cc1

>  <scaffold>  (21) 
cyclohexane

$$$$

     RDKit          3D

 30 32  0  0  0  0  0  0  0  0999 V2000
    0.0000    0.0000   -0.0000 C   0  0  0  0  0  0  0  0  0  0  0  0
    0.0000   -0.0000    1.5279 C   0  0  0  0  0  0  0  0  0  0  0  0
    1.4333   -0.0000    2.0570 C   0  0  0  0  0  0  0  0  0  0  0  0
    0.7869    1.1777   -0.5729 C   0  0  0  0  0  0  0  0  0  0  0  0
    2.2202    1.1777    1.4840 C   0  0  0  0  0  0  0  0  0  0  0  0
    2.2403    1.0877   -0.0410 C   0  0  0  0  0  0  0  0  0  0  0  0
    3.0129    2.1466   -0.6240 N   0  0  0  0  0  0  0  0  0  0  0  0
    2.7250    3.4158   -0.4842 N   0  0  0  0  0  0  0  0  0  0  0  0
    4.0769    1.9216   -1.3661 N   0  0  0  0  0  0  0  0  0  0  0  0
    3.6599    4.0667   -1.0981 N   0  0  0  0  0  0  0  0  0  0  0  0
    4.4901    3.1498   -1.6380 C   0  0  0  0  0  0  0  0  0  0  0  0
    5.5421    3.4690   -2.4297 N   0  0  0  0  0  0  0  0  0  0  0  0
    6.5505    2.4737   -2.7432 C   0  0  0  0  0  0  0  0  0  0  0  0
    7.6167    2.3665   -1.6908 C   0  0  0  0  0  0  0  0  0  0  0  0
    7.4026    1.6903   -0.4999 C   0  0  0  0  0  0  0  0  0  0  0  0
    8.8184    3.0323   -1.8000 C   0  0  0  0  0  0  0  0  0  0  0  0
    8.3943    1.6604    0.4568 C   0  0  0  0  0  0  0  0  0  0  0  0
    9.8223    3.0032   -0.8215 C   0  0  0  0  0  0  0  0  0  0  0  0
    9.6218    2.2827    0.2913 C   0  0  0  0  0  0  0  0  0  0  0  0
   10.9218    3.7289   -1.0158 O   0  0  0  0  0  0  0  0  0  0  0  0
   12.0419    3.7412   -0.1196 C   0  0  0  0  0  0  0  0  0  0  0  0
   12.8626    2.4601   -0.2600 C   0  0  0  0  0  0  0  0  0  0  0  0
   13.4858    2.3252   -1.6485 C   0  0  0  0  0  0  0  0  0  0  0  0
   14.3380    1.0590   -1.7192 C   0  0  0  0  0  0  0  0  0  0  0  0
   14.9410    0.8488   -3.1073 C   0  0  0  0  0  0  0  0  0  0  0  0
   15.7367   -0.4551   -3.1398 C   0  0  0  0  0  0  0  0  0  0  0  0
   16.4069   -0.6852   -4.4935 C   0  0  0  0  0  0  0  0  0  0  0  0
   17.2272   -1.9633   -4.4564 C   0  0  0  0  0  0  0  0  0  0  0  0
   17.8754   -2.2680   -5.8059 C   0  0  0  0  0  0  0  0  0  0  0  0
   18.7306   -3.5297   -5.7008 C   0  0  0  0  0  0  0  0  0  0  0  0
  2  1  1  0
  3  2  1  0
  4  1  1  0
  5  3  1  0
  6  5  1  0
  6  4  1  0
  7  6  1  0
  8  7  1  0
  9  7  1  0
 10  8  2  0
 11 10  1  0
 11  9  2  0
 12 11  1  0
 13 12  1  0
 14 13  1  0
 15 14  2  0
 16 14  1  0
 17 15  1  0
 18 16  2  0
 19 18  1  0
 19 17  2  0
 20 18  1  0
 21 20  1  0
 22 21  1  0
 23 22  1  0
 24 23  1  0
 25 24  1  0
 26 25  1  0
 27 26  1  0
 28 27  1  0
 29 28  1  0
 30 29  1  0
M  END
>  <SMILES>  (22) 
CCCCCCCCCCOc1cccc(CNc2nnn(C3CCCCC3)n2)c1

>  <scaffold>  (22) 
cyclohexane

$$$$

     RDKit          3D

 35 36  0  0  0  0  0  0  0  0999 V2000
   -0.0000   -0.0000   -0.0000 C   0  0  0  0  0  0  0  0  0  0  0  0
   -0.0000   -0.0000    1.5279 C   0  0  0  0  0  0  0  0  0  0  0  0
    1.4333    0.0000    2.0570 C   0  0  0  0  0  0  0  0  0  0  0  0
    0.7406   -1.2355   -0.5093 C   0  0  0  0  0  0  0  0  0  0  0  0
    2.1552   -1.3050    0.0637 C   0  0  0  0  0  0  0  0  0  0  0  0
    2.1320   -1.1576    1.5930 C   0  0  0  0  0  0  0  0  0  0  0  0
    2.9722   -0.2680   -0.5387 N   0  0  0  0  0  0  0  0  0  0  0  0
    4.1881   -0.5112   -1.0450 C   0  0  0  0  0  0  0  0  0  0  0  0
    4.6878   -1.6052   -1.1593 O   0  0  0  0  0  0  0  0  0  0  0  0
    4.8501    0.6419   -1.5386 N   0  0  0  0  0  0  0  0  0  0  0  0
    4.5841    1.9581   -1.3078 C   0  0  0  0  0  0  0  0  0  0  0  0
    3.6177    2.3427   -0.6931 O   0  0  0  0  0  0  0  0  0  0  0  0
    5.5016    2.8590   -1.8039 N   0  0  0  0  0  0  0  0  0  0  0  0
    7.1211    2.4328   -2.1158 S   0  0  0  0  0  6  0  0  0  0  0  0
    7.7182    3.6850   -2.4474 O   0  0  0  0  0  0  0  0  0  0  0  0
    7.1880    1.3131   -3.0234 O   0  0  0  0  0  0  0  0  0  0  0  0
    7.7109    1.9169   -0.5252 C   0  0  0  0  0  0  0  0  0  0  0  0
    7.9639    2.8432    0.4635 C   0  0  0  0  0  0  0  0  0  0  0  0
    7.9518    0.6010   -0.2665 C   0  0  0  0  0  0  0  0  0  0  0  0
    8.3757    2.4858    1.7293 C   0  0  0  0  0  0  0  0  0  0  0  0
    8.3623    0.2422    0.9993 C   0  0  0  0  0  0  0  0  0  0  0  0
    8.4772    1.1236    2.0079 C   0  0  0  0  0  0  0  0  0  0  0  0
    8.8367    0.8982    3.2863 O   0  0  0  0  0  0  0  0  0  0  0  0
    9.0273   -0.4512    3.6793 C   0  0  0  0  0  0  0  0  0  0  0  0
   10.3672   -1.0107    3.2039 C   0  0  0  0  0  0  0  0  0  0  0  0
   10.6864   -2.4128    3.7203 C   0  0  0  0  0  0  0  0  0  0  0  0
    9.6953   -3.4123    3.1263 C   0  0  0  0  0  0  0  0  0  0  0  0
   10.0899   -4.8003    3.6286 C   0  0  0  0  0  0  0  0  0  0  0  0
    9.1590   -5.8462    3.0173 C   0  0  0  0  0  0  0  0  0  0  0  0
    9.6281   -7.2157    3.5060 C   0  0  0  0  0  0  0  0  0  0  0  0
    8.6933   -8.2961    2.9646 C   0  0  0  0  0  0  0  0  0  0  0  0
    9.2353   -9.6449    3.4349 C   0  0  0  0  0  0  0  0  0  0  0  0
    8.3013  -10.6887    2.8246 C   0  0  0  0  0  0  0  0  0  0  0  0
    8.7702  -12.0589    3.3115 C   0  0  0  0  0  0  0  0  0  0  0  0
    7.7760  -13.0571    2.7204 C   0  0  0  0  0  0  0  0  0  0  0  0
  2  1  1  0
  3  2  1  0
  4  1  1  0
  5  4  1  0
  6  5  1  0
  6  3  1  0
  7  5  1  0
  8  7  1  0
  9  8  2  0
 10  8  1  0
 11 10  1  0
 12 11  2  0
 13 11  1  0
 14 13  1  0
 15 14  2  0
 16 14  2  0
 17 14  1  0
 18 17  2  0
 19 17  1  0
 20 18  1  0
 21 19  2  0
 22 21  1  0
 22 20  2  0
 23 22  1  0
 24 23  1  0
 25 24  1  0
 26 25  1  0
 27 26  1  0
 28 27  1  0
 29 28  1  0
 30 29  1  0
 31 30  1  0
 32 31  1  0
 33 32  1  0
 34 33  1  0
 35 34  1  0
M  END
>  <SMILES>  (23) 
CCCCCCCCCCCCOc1ccc(S(=O)(=O)NC(=O)NC(=O)NC2CCCCC2)cc1

>  <scaffold>  (23) 
cyclohexane

$$$$

     RDKit          3D

 24 26  0  0  0  0  0  0  0  0999 V2000
    0.0000   -0.0000    0.0000 C   0  0  0  0  0  0  0  0  0  0  0  0
    0.0000   -0.0000    1.5279 C   0  0  0  0  0  0  0  0  0  0  0  0
    1.4333    0.0000    2.0570 C   0  0  0  0  0  0  0  0  0  0  0  0
    0.7869    1.1777   -0.5729 C   0  0  0  0  0  0  0  0  0  0  0  0
    2.2202    1.1777    1.4840 C   0  0  0  0  0  0  0  0  0  0  0  0
    2.2403    1.0877   -0.0410 C   0  0  0  0  0  0  0  0  0  0  0  0
    3.0174    2.1526   -0.6274 N   0  0  0  0  0  0  0  0  0  0  0  0
    4.2564    1.9745   -1.1037 C   0  0  0  0  0  0  0  0  0  0  0  0
    4.7742    0.7402   -1.1490 N   0  0  0  0  0  0  0  0  0  0  0  0
    5.0206    3.0743   -1.5455 C   0  0  0  0  0  0  0  0  0  0  0  0
    5.9355    0.5192   -1.6383 N   0  0  0  0  0  0  0  0  0  0  0  0
    6.2572    2.8394   -2.0672 C   0  0  0  0  0  0  0  0  0  0  0  0
    6.6665    1.4944   -2.1161 C   0  0  0  0  0  0  0  0  0  0  0  0
    8.2143    1.1238   -2.8264 S   0  0  0  0  0  0  0  0  0  0  0  0
    8.3414   -0.6603   -2.5923 C   0  0  0  0  0  0  0  0  0  0  0  0
    8.2952   -1.1562   -1.3072 C   0  0  0  0  0  0  0  0  0  0  0  0
    8.4842   -1.5021   -3.6842 C   0  0  0  0  0  0  0  0  0  0  0  0
    8.4472   -2.5355   -1.1729 C   0  0  0  0  0  0  0  0  0  0  0  0
    8.6354   -2.8735   -3.5506 C   0  0  0  0  0  0  0  0  0  0  0  0
    8.6957   -3.3940   -2.2428 C   0  0  0  0  0  0  0  0  0  0  0  0
    8.3313   -2.9107    0.1318 O   0  0  0  0  0  0  0  0  0  0  0  0
    8.6147   -4.2665    0.4368 C   0  0  0  0  0  0  0  0  0  0  0  0
   10.1149   -4.5509    0.4882 C   0  0  0  0  0  0  0  0  0  0  0  0
   10.4777   -5.9329    1.0294 C   0  0  0  0  0  0  0  0  0  0  0  0
  2  1  1  0
  3  2  1  0
  4  1  1  0
  5  3  1  0
  6  5  1  0
  6  4  1  0
  7  6  1  0
  8  7  1  0
  9  8  2  0
 10  8  1  0
 11  9  1  0
 12 10  2  0
 13 12  1  0
 13 11  2  0
 14 13  1  0
 15 14  1  0
 16 15  2  0
 17 15  1  0
 18 16  1  0
 19 17  2  0
 20 19  1  0
 20 18  2  0
 21 18  1  0
 22 21  1  0
 23 22  1  0
 24 23  1  0
M  END
>  <SMILES>  (24) 
CCCOc1cccc(Sc2ccc(NC3CCCCC3)nn2)c1

>  <scaffold>  (24) 
cyclohexane

$$$$

     RDKit          3D

 26 28  0  0  0  0  0  0  0  0999 V2000
   -0.0000   -0.0000   -0.0000 C   0  0  0  0  0  0  0  0  0  0  0  0
   -0.0000    0.0000    1.5279 C   0  0  0  0  0  0  0  0  0  0  0  0
    1.4333   -0.0000    2.0570 C   0  0  0  0  0  0  0  0  0  0  0  0
    2.1739    1.2355    1.5477 C   0  0  0  0  0  0  0  0  0  0  0  0
    0.7406    1.2355   -0.5093 C   0  0  0  0  0  0  0  0  0  0  0  0
    2.1950    1.2410    0.0200 C   0  0  0  0  0  0  0  0  0  0  0  0
    3.5271    1.3073    2.0667 N   0  0  0  0  0  0  0  0  0  0  0  0
    3.9636    2.3377    2.8304 C   0  0  0  0  0  0  0  0  0  0  0  0
    3.2385    3.2480    3.1796 O   0  0  0  0  0  0  0  0  0  0  0  0
    5.2782    2.2554    3.1792 N   0  0  0  0  0  0  0  0  0  0  0  0
    5.9176    3.2244    4.0359 C   0  0  0  0  0  0  0  0  0  0  0  0
    6.3785    2.5970    5.3102 C   0  0  0  0  0  0  0  0  0  0  0  0
    7.6374    2.5639    5.8506 C   0  0  0  0  0  0  0  0  0  0  0  0
    5.5653    1.8240    6.1910 C   0  0  0  0  0  0  0  0  0  0  0  0
    7.6470    1.9376    7.0606 O   0  0  0  0  0  0  0  0  0  0  0  0
    6.3779    1.5088    7.2281 C   0  0  0  0  0  0  0  0  0  0  0  0
    8.9692    3.1045    5.4150 C   0  0  0  0  0  0  0  0  0  0  0  0
    6.1040    0.7481    8.2959 O   0  0  0  0  0  0  0  0  0  0  0  0
    7.0842    0.6823    9.3640 C   0  0  2  0  0  0  0  0  0  0  0  0
    6.7382   -0.5587   10.1853 C   0  0  0  0  0  0  0  0  0  0  0  0
    6.9990    1.9563   10.1708 C   0  0  0  0  0  0  0  0  0  0  0  0
    5.8527    2.3008   10.8540 C   0  0  0  0  0  0  0  0  0  0  0  0
    8.1001    2.7867   10.3101 C   0  0  0  0  0  0  0  0  0  0  0  0
    5.8055    3.4904   11.5326 C   0  0  0  0  0  0  0  0  0  0  0  0
    8.0569    3.9754   10.9906 C   0  0  0  0  0  0  0  0  0  0  0  0
    6.8569    4.3806   11.5736 C   0  0  0  0  0  0  0  0  0  0  0  0
  2  1  1  0
  3  2  1  0
  4  3  1  0
  5  1  1  0
  6  5  1  0
  6  4  1  0
  7  4  1  0
  8  7  1  0
  9  8  2  0
 10  8  1  0
 11 10  1  0
 12 11  1  0
 13 12  2  0
 14 12  1  0
 15 13  1  0
 16 15  1  0
 16 14  2  0
 17 13  1  0
 18 16  1  0
 19 18  1  0
 19 20  1  1
 21 19  1  0
 22 21  2  0
 23 21  1  0
 24 22  1  0
 25 23  2  0
 26 24  2  0
 26 25  1  0
M  END
>  <SMILES>  (25) 
Cc1oc(OC(C)c2ccccc2)cc1CNC(=O)NC1CCCCC1

>  <scaffold>  (25) 
cyclohexane

$$$$

     RDKit          3D

 19 20  0  0  0  0  0  0  0  0999 V2000
    0.0000    0.0000    0.0000 C   0  0  0  0  0  0  0  0  0  0  0  0
    0.0000    0.0000    1.5279 C   0  0  0  0  0  0  0  0  0  0  0  0
    1.4244   -0.0000    2.0805 C   0  0  0  0  0  0  0  0  0  0  0  0
    2.2113   -1.1777    1.5075 C   0  0  0  0  0  0  0  0  0  0  0  0
    0.7869   -1.1777   -0.5729 C   0  0  0  0  0  0  0  0  0  0  0  0
    2.1891   -1.1512   -0.0375 C   0  0  0  0  0  0  0  0  0  0  0  0
    2.8770   -2.2747   -0.6260 N   0  0  0  0  0  0  0  0  0  0  0  0
    4.2100   -2.3227   -0.8144 C   0  0  0  0  0  0  0  0  0  0  0  0
    4.9926   -1.2876   -0.5152 N   0  0  0  0  0  0  0  0  0  0  0  0
    4.7693   -3.5009   -1.3506 C   0  0  0  0  0  0  0  0  0  0  0  0
    6.2549   -1.3601   -0.7541 N   0  0  0  0  0  0  0  0  0  0  0  0
    6.1219   -3.4856   -1.5701 C   0  0  0  0  0  0  0  0  0  0  0  0
    6.8237   -2.4053   -1.2813 C   0  0  0  0  0  0  0  0  0  0  0  0
    8.1496   -2.4179   -1.5594 F   0  0  0  0  0  0  0  0  0  0  0  0
    6.7749   -4.5572   -2.1399 N   0  0  0  0  0  0  0  0  0  0  0  0
    6.3144   -5.7614   -2.5807 C   0  0  0  0  0  0  0  0  0  0  0  0
    5.1450   -6.0572   -2.5124 O   0  0  0  0  0  0  0  0  0  0  0  0
    7.3165   -6.5220   -3.0174 O   0  0  0  0  0  0  0  0  0  0  0  0
    7.1745   -7.8404   -3.6069 C   0  0  0  0  0  0  0  0  0  0  0  0
  2  1  1  0
  3  2  1  0
  4  3  1  0
  5  1  1  0
  6  5  1  0
  6  4  1  0
  7  6  1  0
  8  7  1  0
  9  8  2  0
 10  8  1  0
 11  9  1  0
 12 10  2  0
 13 12  1  0
 13 11  2  0
 14 13  1  0
 15 12  1  0
 16 15  1  0
 17 16  2  0
 18 16  1  0
 19 18  1  0
M  END
>  <SMILES>  (26) 
COC(=O)Nc1cc(NC2CCCCC2)nnc1F

>  <scaffold>  (26) 
cyclohexane

$$$$

     RDKit          3D

 29 31  0  0  0  0  0  0  0  0999 V2000
    0.0000    0.0000   -0.0000 C   0  0  0  0  0  0  0  0  0  0  0  0
    0.0000    0.0000    1.5279 C   0  0  0  0  0  0  0  0  0  0  0  0
    1.4333   -0.0000    2.0570 C   0  0  0  0  0  0  0  0  0  0  0  0
    2.1739    1.2355    1.5477 C   0  0  0  0  0  0  0  0  0  0  0  0
    0.7406    1.2355   -0.5093 C   0  0  0  0  0  0  0  0  0  0  0  0
    2.1262    1.3104    0.0224 C   0  0  0  0  0  0  0  0  0  0  0  0
    2.7919    2.5166   -0.4062 O   0  0  0  0  0  0  0  0  0  0  0  0
    3.0753    2.6670   -1.6908 C   0  0  0  0  0  0  0  0  0  0  0  0
    2.8134    1.7271   -2.5522 N   0  0  0  0  0  0  0  0  0  0  0  0
    3.6910    3.9045   -2.0750 C   0  0  0  0  0  0  0  0  0  0  0  0
    3.1591    1.9031   -3.8261 N   0  0  0  0  0  0  0  0  0  0  0  0
    4.0369    4.0799   -3.3490 C   0  0  0  0  0  0  0  0  0  0  0  0
    3.7888    2.9879   -4.4160 C   0  0  0  0  0  0  0  0  0  0  0  0
    4.0175    3.0645   -5.6069 O   0  0  0  0  0  0  0  0  0  0  0  0
    2.7646    0.8149   -4.6876 C   0  0  0  0  0  0  0  0  0  0  0  0
    1.3086    0.9499   -5.1306 C   0  0  0  0  0  0  0  0  0  0  0  0
    0.6970   -0.4815   -6.0825 S   0  0  0  0  0  0  0  0  0  0  0  0
    0.3440   -1.6406   -4.7602 C   0  0  0  0  0  0  0  0  0  0  0  0
    1.2086   -2.6856   -4.5149 C   0  0  0  0  0  0  0  0  0  0  0  0
   -0.8752   -1.5782   -4.0707 C   0  0  0  0  0  0  0  0  0  0  0  0
    0.8668   -3.5890   -3.5096 C   0  0  0  0  0  0  0  0  0  0  0  0
   -1.2126   -2.4830   -3.0762 C   0  0  0  0  0  0  0  0  0  0  0  0
   -0.3180   -3.4965   -2.8116 C   0  0  0  0  0  0  0  0  0  0  0  0
   -0.7871   -4.3484   -1.8461 O   0  0  0  0  0  0  0  0  0  0  0  0
    0.0701   -5.4579   -1.5424 C   0  0  0  0  0  0  0  0  0  0  0  0
   -0.0243   -6.5784   -2.5769 C   0  0  0  0  0  0  0  0  0  0  0  0
    0.6929   -7.8702   -2.1882 C   0  0  0  0  0  0  0  0  0  0  0  0
    2.1920   -7.6189   -2.0330 C   0  0  0  0  0  0  0  0  0  0  0  0
    2.8677   -8.9478   -1.6989 C   0  0  0  0  0  0  0  0  0  0  0  0
  2  1  1  0
  3  2  1  0
  4  3  1  0
  5  1  1  0
  6  5  1  0
  6  4  1  0
  7  6  1  0
  8  7  1  0
  9  8  2  0
 10  8  1  0
 11  9  1  0
 12 10  2  0
 13 12  1  0
 13 11  1  0
 14 13  2  0
 15 11  1  0
 16 15  1  0
 17 16  1  0
 18 17  1  0
 19 18  2  0
 20 18  1  0
 21 19  1  0
 22 20  2  0
 23 22  1  0
 23 21  2  0
 24 23  1  0
 25 24  1  0
 26 25  1  0
 27 26  1  0
 28 27  1  0
 29 28  1  0
M  END
>  <SMILES>  (27) 
CCCCCOc1ccc(SCCn2nc(OC3CCCCC3)ccc2=O)cc1

>  <scaffold>  (27) 
cyclohexane

$$$$

     RDKit          3D

 19 21  0  0  0  0  0  0  0  0999 V2000
   -0.0000   -0.0000   -0.0000 C   0  0  1  0  0  0  0  0  0  0  0  0
   -0.0000    0.0000    1.5366 C   0  0  0  0  0  0  0  0  0  0  0  0
    1.5075   -0.0000    1.8770 C   0  0  0  0  0  0  0  0  0  0  0  0
    2.1918    0.0599    0.5024 C   0  0  2  0  0  0  0  0  0  0  0  0
    0.4853    1.3563   -0.5093 C   0  0  1  0  0  0  0  0  0  0  0  0
    1.9817    1.3563   -0.1229 C   0  0  0  0  0  0  0  0  0  0  0  0
    1.2100   -0.8974   -0.2546 C   0  0  0  0  0  0  0  0  0  0  0  0
    0.3906    1.5565   -1.9434 O   0  0  0  0  0  0  0  0  0  0  0  0
    0.4157    2.7591   -2.4599 C   0  0  0  0  0  0  0  0  0  0  0  0
    0.4130    3.7508   -1.7577 O   0  0  0  0  0  0  0  0  0  0  0  0
    0.4553    2.8991   -3.9461 C   0  0  0  0  0  0  0  0  0  0  0  0
    0.0981    1.7932   -4.5807 N   0  0  0  0  0  0  0  0  0  0  0  0
    0.8735    4.0522   -4.6086 C   0  0  0  0  0  0  0  0  0  0  0  0
    0.1937    1.9488   -5.8998 C   0  0  0  0  0  0  0  0  0  0  0  0
    0.9726    4.2087   -5.9585 C   0  0  0  0  0  0  0  0  0  0  0  0
    0.5870    3.0278   -6.6759 C   0  0  0  0  0  0  0  0  0  0  0  0
    0.7458    3.2160   -8.0081 O   0  0  0  0  0  0  0  0  0  0  0  0
    0.3286    2.1156   -8.7996 C   0  0  0  0  0  0  0  0  0  0  0  0
    1.4106    5.2478   -6.7095 O   0  0  0  0  0  0  0  0  0  0  0  0
  2  1  1  0
  3  2  1  0
  4  3  1  1
  5  1  1  0
  6  5  1  0
  6  4  1  0
  7  4  1  0
  7  1  1  0
  5  8  1  6
  9  8  1  0
 10  9  2  0
 11  9  1  0
 12 11  2  0
 13 11  1  0
 14 12  1  0
 15 13  2  0
 16 15  1  0
 16 14  2  0
 17 16  1  0
 18 17  1  0
 19 15  1  0
M  END
>  <SMILES>  (28) 
COc1cnc(C(=O)OC2CC3CCC2C3)cc1O

>  <scaffold>  (28) 
cyclohexane

$$$$

     RDKit          3D

 28 30  0  0  0  0  0  0  0  0999 V2000
    0.0000   -0.0000   -0.0000 C   0  0  0  0  0  0  0  0  0  0  0  0
   -0.0000   -0.0000    1.5279 C   0  0  0  0  0  0  0  0  0  0  0  0
    1.4333   -0.0000    2.0570 C   0  0  0  0  0  0  0  0  0  0  0  0
    2.1739    1.2355    1.5477 C   0  0  0  0  0  0  0  0  0  0  0  0
    0.7869    1.1777   -0.5729 C   0  0  0  0  0  0  0  0  0  0  0  0
    2.1259    1.3108    0.0136 C   0  0  0  0  0  0  0  0  0  0  0  0
    2.7689    2.4903   -0.5129 N   0  0  0  0  0  0  0  0  0  0  0  0
    4.1132    2.6567   -0.6605 C   0  0  0  0  0  0  0  0  0  0  0  0
    4.5014    3.8769   -1.0263 N   0  0  0  0  0  0  0  0  0  0  0  0
    4.8617    1.5757   -0.5050 N   0  0  0  0  0  0  0  0  0  0  0  0
    5.8030    4.0726   -1.2286 C   0  0  0  0  0  0  0  0  0  0  0  0
    6.1631    1.7753   -0.7049 C   0  0  0  0  0  0  0  0  0  0  0  0
    6.6962    3.0164   -1.0546 C   0  0  0  0  0  0  0  0  0  0  0  0
    6.0775    5.3458   -1.5407 O   0  0  0  0  0  0  0  0  0  0  0  0
    7.4189    5.6686   -1.8325 C   0  0  0  0  0  0  0  0  0  0  0  0
    7.8264    5.2357   -3.2400 C   0  0  0  0  0  0  0  0  0  0  0  0
    9.2017    5.5367   -3.4694 O   0  0  0  0  0  0  0  0  0  0  0  0
    9.7230    5.3757   -4.6926 C   0  0  0  0  0  0  0  0  0  0  0  0
    9.0118    5.0216   -5.6212 O   0  0  0  0  0  0  0  0  0  0  0  0
   11.1630    5.6504   -4.8665 C   0  0  0  0  0  0  0  0  0  0  0  0
   11.8729    6.0042   -3.7201 C   0  0  0  0  0  0  0  0  0  0  0  0
   11.8093    5.5715   -6.0993 C   0  0  0  0  0  0  0  0  0  0  0  0
   13.2140    6.2018   -3.9212 C   0  0  0  0  0  0  0  0  0  0  0  0
   13.1580    5.7703   -6.3017 C   0  0  0  0  0  0  0  0  0  0  0  0
   13.9337    6.0929   -5.1102 C   0  0  0  0  0  0  0  0  0  0  0  0
   15.2793    6.2521   -5.2528 F   0  0  0  0  0  0  0  0  0  0  0  0
   13.7441    5.6370   -7.4986 O   0  0  0  0  0  0  0  0  0  0  0  0
   15.0923    5.8643   -7.8440 C   0  0  0  0  0  0  0  0  0  0  0  0
  2  1  1  0
  3  2  1  0
  4  3  1  0
  5  1  1  0
  6  5  1  0
  6  4  1  0
  7  6  1  0
  8  7  1  0
  9  8  2  0
 10  8  1  0
 11  9  1  0
 12 10  2  0
 13 12  1  0
 13 11  2  0
 14 11  1  0
 15 14  1  0
 16 15  1  0
 17 16  1  0
 18 17  1  0
 19 18  2  0
 20 18  1  0
 21 20  2  0
 22 20  1  0
 23 21  1  0
 24 22  2  0
 25 24  1  0
 25 23  2  0
 26 25  1  0
 27 24  1  0
 28 27  1  0
M  END
>  <SMILES>  (29) 
COc1cc(C(=O)OCCOc2ccnc(NC3CCCCC3)n2)ccc1F

>  <scaffold>  (29) 
cyclohexane

$$$$

     RDKit          3D

 27 29  0  0  0  0  0  0  0  0999 V2000
    0.0000   -0.0000   -0.0000 C   0  0  0  0  0  0  0  0  0  0  0  0
    0.0000   -0.0000    1.5279 C   0  0  0  0  0  0  0  0  0  0  0  0
    1.4333   -0.0000    2.0570 C   0  0  0  0  0  0  0  0  0  0  0  0
    0.7406    1.2355   -0.5093 C   0  0  0  0  0  0  0  0  0  0  0  0
    2.1739    1.2355    1.5477 C   0  0  0  0  0  0  0  0  0  0  0  0
    2.1950    1.2410    0.0200 C   0  0  0  0  0  0  0  0  0  0  0  0
   -1.3375    0.0000   -0.5411 N   0  0  0  0  0  0  0  0  0  0  0  0
   -1.8683   -0.9929   -1.2665 C   0  0  0  0  0  0  0  0  0  0  0  0
   -1.1157   -2.0551   -1.5086 N   0  0  0  0  0  0  0  0  0  0  0  0
   -3.1715   -0.8494   -1.7856 C   0  0  0  0  0  0  0  0  0  0  0  0
   -1.5748   -3.0227   -2.2482 N   0  0  0  0  0  0  0  0  0  0  0  0
   -3.6566   -1.8761   -2.5667 C   0  0  0  0  0  0  0  0  0  0  0  0
   -2.7780   -3.0013   -2.7821 C   0  0  0  0  0  0  0  0  0  0  0  0
   -3.1203   -4.0312   -3.5670 O   0  0  0  0  0  0  0  0  0  0  0  0
   -4.9292   -1.7165   -3.0031 F   0  0  0  0  0  0  0  0  0  0  0  0
   -2.3273   -5.1721   -3.6810 C   0  0  0  0  0  0  0  0  0  0  0  0
   -1.9275   -5.8146   -2.5196 C   0  0  0  0  0  0  0  0  0  0  0  0
   -2.0169   -5.6538   -4.9258 C   0  0  0  0  0  0  0  0  0  0  0  0
   -1.1822   -6.9717   -2.6842 C   0  0  0  0  0  0  0  0  0  0  0  0
   -1.2735   -6.8125   -5.0880 C   0  0  0  0  0  0  0  0  0  0  0  0
   -0.8817   -7.5273   -3.9270 C   0  0  0  0  0  0  0  0  0  0  0  0
   -0.0956   -8.6397   -3.9628 O   0  0  0  0  0  0  0  0  0  0  0  0
    0.4137   -9.2190   -5.1529 C   0  0  0  0  0  0  0  0  0  0  0  0
    1.5052   -8.3497   -5.7752 C   0  0  0  0  0  0  0  0  0  0  0  0
    2.2496   -9.0375   -6.9420 C   0  0  1  0  0  0  0  0  0  0  0  0
    1.3749   -9.3986   -7.9766 O   0  0  0  0  0  0  0  0  0  0  0  0
    3.2707   -8.0394   -7.5097 C   0  0  0  0  0  0  0  0  0  0  0  0
  2  1  1  0
  3  2  1  0
  4  1  1  0
  5  3  1  0
  6  5  1  0
  6  4  1  0
  7  1  1  0
  8  7  1  0
  9  8  2  0
 10  8  1  0
 11  9  1  0
 12 10  2  0
 13 12  1  0
 13 11  2  0
 14 13  1  0
 15 12  1  0
 16 14  1  0
 17 16  2  0
 18 16  1  0
 19 17  1  0
 20 18  2  0
 21 20  1  0
 21 19  2  0
 22 21  1  0
 23 22  1  0
 24 23  1  0
 25 24  1  0
 26 25  1  0
 25 27  1  6
M  END
>  <SMILES>  (30) 
CC(O)CCOc1ccc(Oc2nnc(NC3CCCCC3)cc2F)cc1

>  <scaffold>  (30) 
cyclohexane

$$$$

     RDKit          3D

 26 29  0  0  0  0  0  0  0  0999 V2000
   -0.0000    0.0000   -0.0000 C   0  0  0  0  0  0  0  0  0  0  0  0
   -0.0000   -0.0000    1.5279 C   0  0  0  0  0  0  0  0  0  0  0  0
    1.4333   -0.0000    2.0570 C   0  0  0  0  0  0  0  0  0  0  0  0
    2.1739    1.2355    1.5477 C   0  0  0  0  0  0  0  0  0  0  0  0
    2.1950    1.2410    0.0200 C   0  0  0  0  0  0  0  0  0  0  0  0
    0.7406    1.2355   -0.5093 C   0  0  0  0  0  0  0  0  0  0  0  0
    2.8329    2.4043   -0.5039 N   0  0  0  0  0  0  0  0  0  0  0  0
    4.0530    2.3981   -0.9780 N   0  0  0  0  0  0  0  0  0  0  0  0
    2.2750    3.6004   -0.3970 N   0  0  0  0  0  0  0  0  0  0  0  0
    4.3040    3.6235   -1.3096 N   0  0  0  0  0  0  0  0  0  0  0  0
    3.2070    4.3587   -0.9534 C   0  0  0  0  0  0  0  0  0  0  0  0
    3.1364    5.7009   -1.0440 N   0  0  0  0  0  0  0  0  0  0  0  0
    4.0731    6.4533   -1.8429 C   0  0  0  0  0  0  0  0  0  0  0  0
    4.2100    7.8657   -1.3780 C   0  0  0  0  0  0  0  0  0  0  0  0
    4.0420    8.4071   -0.1475 C   0  0  0  0  0  0  0  0  0  0  0  0
    4.5409    8.8377   -2.2259 O   0  0  0  0  0  0  0  0  0  0  0  0
    4.3458    9.7636   -0.2534 C   0  0  0  0  0  0  0  0  0  0  0  0
    4.6512   10.0075   -1.5515 C   0  0  0  0  0  0  0  0  0  0  0  0
    5.0548   11.2102   -2.2213 C   0  0  0  0  0  0  0  0  0  0  0  0
    5.1956   12.3265   -1.5089 O   0  0  0  0  0  0  0  0  0  0  0  0
    5.3696   11.3513   -3.5557 C   0  0  0  0  0  0  0  0  0  0  0  0
    5.5227   13.2645   -2.4187 C   0  0  0  0  0  0  0  0  0  0  0  0
    5.6329   12.6980   -3.6849 C   0  0  0  0  0  0  0  0  0  0  0  0
    6.0211   13.5333   -5.1178 Cl  0  0  0  0  0  0  0  0  0  0  0  0
    5.7995   14.6200   -1.8798 C   0  0  0  0  0  0  0  0  0  0  0  0
    7.1488   14.7428   -1.1737 C   0  0  0  0  0  0  0  0  0  0  0  0
  2  1  1  0
  3  2  1  0
  4  3  1  0
  5  4  1  0
  6  5  1  0
  6  1  1  0
  7  5  1  0
  8  7  1  0
  9  7  1  0
 10  8  2  0
 11 10  1  0
 11  9  2  0
 12 11  1  0
 13 12  1  0
 14 13  1  0
 15 14  2  0
 16 14  1  0
 17 15  1  0
 18 17  2  0
 18 16  1  0
 19 18  1  0
 20 19  1  0
 21 19  2  0
 22 20  1  0
 23 21  1  0
 23 22  2  0
 24 23  1  0
 25 22  1  0
 26 25  1  0
M  END
>  <SMILES>  (31) 
CCc1oc(-c2ccc(CNc3nnn(C4CCCCC4)n3)o2)cc1Cl

>  <scaffold>  (31) 
cyclohexane

$$$$

     RDKit          3D

 33 35  0  0  0  0  0  0  0  0999 V2000
    0.0000    0.0000    0.0000 C   0  0  0  0  0  0  0  0  0  0  0  0
    0.0000   -0.0000    1.5279 C   0  0  0  0  0  0  0  0  0  0  0  0
    1.4333    0.0000    2.0570 C   0  0  0  0  0  0  0  0  0  0  0  0
    2.1739    1.2355    1.5477 C   0  0  0  0  0  0  0  0  0  0  0  0
    0.7406    1.2355   -0.5093 C   0  0  0  0  0  0  0  0  0  0  0  0
    2.1262    1.3104    0.0224 C   0  0  0  0  0  0  0  0  0  0  0  0
    2.7919    2.5166   -0.4062 N   0  0  0  0  0  0  0  0  0  0  0  0
    3.8508    2.5189   -1.1373 N   0  0  0  0  0  0  0  0  0  0  0  0
    2.3476    3.6985   -0.0611 N   0  0  0  0  0  0  0  0  0  0  0  0
    4.1825    3.7548   -1.2727 N   0  0  0  0  0  0  0  0  0  0  0  0
    3.2682    4.4845   -0.6161 C   0  0  0  0  0  0  0  0  0  0  0  0
    3.2898    5.8341   -0.5001 N   0  0  0  0  0  0  0  0  0  0  0  0
    4.2581    6.5766   -1.0335 N   0  0  0  0  0  0  0  0  0  0  0  0
    4.2146    7.8591   -0.9382 C   0  0  0  0  0  0  0  0  0  0  0  0
    5.2588    8.6984   -1.4511 C   0  0  0  0  0  0  0  0  0  0  0  0
    5.1438   10.0854   -1.3687 C   0  0  0  0  0  0  0  0  0  0  0  0
    6.4296    8.1954   -2.0362 C   0  0  0  0  0  0  0  0  0  0  0  0
    6.1367   10.9254   -1.8003 C   0  0  0  0  0  0  0  0  0  0  0  0
    7.4163    9.0312   -2.4657 C   0  0  0  0  0  0  0  0  0  0  0  0
    7.3135   10.4131   -2.3448 C   0  0  0  0  0  0  0  0  0  0  0  0
    8.2414   11.3390   -2.6870 O   0  0  0  0  0  0  0  0  0  0  0  0
    9.4757   10.8629   -3.1982 C   0  0  0  0  0  0  0  0  0  0  0  0
   10.3373   12.1125   -3.4375 C   0  0  2  0  0  0  0  0  0  0  0  0
    9.7349   12.9320   -4.5894 C   0  0  0  0  0  0  0  0  0  0  0  0
   11.6287   11.6876   -3.7461 O   0  0  0  0  0  0  0  0  0  0  0  0
   11.8254   11.2272   -5.0644 C   0  0  0  0  0  0  0  0  0  0  0  0
   13.2255   10.6527   -5.1966 C   0  0  0  0  0  0  0  0  0  0  0  0
   13.5086   10.1884   -6.6244 C   0  0  0  0  0  0  0  0  0  0  0  0
   14.8864    9.5516   -6.7983 C   0  0  0  0  0  0  0  0  0  0  0  0
   15.1407    9.1551   -8.2517 C   0  0  0  0  0  0  0  0  0  0  0  0
   16.5482    8.5750   -8.3812 C   0  0  0  0  0  0  0  0  0  0  0  0
   16.8725    8.2123   -9.8295 C   0  0  0  0  0  0  0  0  0  0  0  0
   18.3057    7.6895   -9.9127 C   0  0  0  0  0  0  0  0  0  0  0  0
  2  1  1  0
  3  2  1  0
  4  3  1  0
  5  1  1  0
  6  5  1  0
  6  4  1  0
  7  6  1  0
  8  7  1  0
  9  7  1  0
 10  8  2  0
 11 10  1  0
 11  9  2  0
 12 11  1  0
 13 12  1  0
 14 13  2  0
 15 14  1  0
 16 15  2  0
 17 15  1  0
 18 16  1  0
 19 17  2  0
 20 19  1  0
 20 18  2  0
 21 20  1  0
 22 21  1  0
 23 22  1  0
 23 24  1  6
 25 23  1  0
 26 25  1  0
 27 26  1  0
 28 27  1  0
 29 28  1  0
 30 29  1  0
 31 30  1  0
 32 31  1  0
 33 32  1  0
M  END
>  <SMILES>  (32) 
CCCCCCCCOC(C)COc1ccc(C=NNc2nnn(C3CCCCC3)n2)cc1

>  <scaffold>  (32) 
cyclohexane

$$$$

     RDKit          3D

 29 32  0  0  0  0  0  0  0  0999 V2000
    0.0000    0.0000    0.0000 C   0  0  2  0  0  0  0  0  0  0  0  0
   -0.0000   -0.0000    1.5366 C   0  0  0  0  0  0  0  0  0  0  0  0
    1.5075   -0.0000    1.8770 C   0  0  0  0  0  0  0  0  0  0  0  0
    0.4242   -1.3985   -0.4456 C   0  0  0  0  0  0  0  0  0  0  0  0
    2.1879   -0.0595    0.5103 C   0  0  1  0  0  0  0  0  0  0  0  0
    1.9358   -1.3985   -0.1237 C   0  0  1  0  0  0  0  0  0  0  0  0
    1.2354    0.8255   -0.3165 C   0  0  0  0  0  0  0  0  0  0  0  0
    1.4864    1.3700   -1.3734 O   0  0  0  0  0  0  0  0  0  0  0  0
    2.2756   -2.5119    0.6722 O   0  0  0  0  0  0  0  0  0  0  0  0
    3.5827   -2.9014    0.8052 C   0  0  0  0  0  0  0  0  0  0  0  0
    4.6590   -2.1685    0.3534 C   0  0  0  0  0  0  0  0  0  0  0  0
    3.7557   -4.1067    1.5004 C   0  0  0  0  0  0  0  0  0  0  0  0
    5.9530   -2.6497    0.5980 C   0  0  0  0  0  0  0  0  0  0  0  0
    5.0143   -4.5696    1.7418 C   0  0  0  0  0  0  0  0  0  0  0  0
    6.1590   -3.8668    1.2285 C   0  0  0  0  0  0  0  0  0  0  0  0
    6.9215   -1.8242    0.1562 O   0  0  0  0  0  0  0  0  0  0  0  0
    8.2593   -2.2206    0.2940 C   0  0  0  0  0  0  0  0  0  0  0  0
    8.6575   -3.4363   -0.5253 C   0  0  0  0  0  0  0  0  0  0  0  0
    7.8831   -4.0075   -1.2328 O   0  0  0  0  0  0  0  0  0  0  0  0
    9.9290   -3.8070   -0.3261 O   0  0  0  0  0  0  0  0  0  0  0  0
   10.5228   -4.9154   -0.9095 C   0  0  0  0  0  0  0  0  0  0  0  0
    9.8417   -6.1114   -1.1312 C   0  0  0  0  0  0  0  0  0  0  0  0
   11.8846   -4.8233   -1.2304 C   0  0  0  0  0  0  0  0  0  0  0  0
   10.4954   -7.2158   -1.6760 C   0  0  0  0  0  0  0  0  0  0  0  0
   12.5294   -5.9170   -1.7666 C   0  0  0  0  0  0  0  0  0  0  0  0
   11.8607   -7.1309   -1.9448 C   0  0  0  0  0  0  0  0  0  0  0  0
    9.8450   -8.4153   -1.9618 N   0  0  0  0  0  0  0  0  0  0  0  0
    8.5173   -8.6921   -1.8314 C   0  0  0  0  0  0  0  0  0  0  0  0
    7.6756   -7.9202   -1.4374 O   0  0  0  0  0  0  0  0  0  0  0  0
  2  1  1  0
  3  2  1  0
  4  1  1  0
  5  3  1  1
  6  5  1  0
  6  4  1  0
  7  5  1  0
  7  1  1  0
  8  7  2  0
  6  9  1  1
 10  9  1  0
 11 10  2  0
 12 10  1  0
 13 11  1  0
 14 12  2  0
 15 14  1  0
 15 13  2  0
 16 13  1  0
 17 16  1  0
 18 17  1  0
 19 18  2  0
 20 18  1  0
 21 20  1  0
 22 21  2  0
 23 21  1  0
 24 22  1  0
 25 23  2  0
 26 24  2  0
 26 25  1  0
 27 24  1  0
 28 27  1  0
 29 28  2  0
M  END
>  <SMILES>  (33) 
O=CNc1cccc(OC(=O)COc2cccc(OC3CC4CCC3C4=O)c2)c1

>  <scaffold>  (33) 
cyclohexane

$$$$

     RDKit          3D

 23 24  0  0  0  0  0  0  0  0999 V2000
   -0.0000   -0.0000   -0.0000 C   0  0  0  0  0  0  0  0  0  0  0  0
   -0.0000   -0.0000    1.5279 C   0  0  0  0  0  0  0  0  0  0  0  0
    1.4333    0.0000    2.0570 C   0  0  0  0  0  0  0  0  0  0  0  0
    2.1739   -1.2355    1.5477 C   0  0  0  0  0  0  0  0  0  0  0  0
    2.1950   -1.2410    0.0200 C   0  0  0  0  0  0  0  0  0  0  0  0
    0.7406   -1.2355   -0.5093 C   0  0  0  0  0  0  0  0  0  0  0  0
   -1.3452    0.0000   -0.5442 N   0  0  0  0  0  0  0  0  0  0  0  0
   -1.8184    1.0005   -1.3390 C   0  0  0  0  0  0  0  0  0  0  0  0
   -1.1686    1.9842   -1.6029 O   0  0  0  0  0  0  0  0  0  0  0  0
   -3.1092    0.7327   -1.7675 N   0  0  0  0  0  0  0  0  0  0  0  0
   -3.9473    1.5237   -2.5378 C   0  0  0  0  0  0  0  0  0  0  0  0
   -5.2303    1.0376   -2.7851 C   0  0  0  0  0  0  0  0  0  0  0  0
   -3.6059    2.7898   -3.0342 C   0  0  0  0  0  0  0  0  0  0  0  0
   -6.0820    1.7665   -3.5869 C   0  0  0  0  0  0  0  0  0  0  0  0
   -4.4553    3.5192   -3.8380 C   0  0  0  0  0  0  0  0  0  0  0  0
   -5.7342    2.9810   -4.1764 C   0  0  0  0  0  0  0  0  0  0  0  0
   -6.5809    3.7813   -4.9566 N   0  0  0  0  0  0  0  0  0  0  0  0
   -7.5843    3.4004   -5.7960 C   0  0  0  0  0  0  0  0  0  0  0  0
   -8.2508    4.2255   -6.3599 O   0  0  0  0  0  0  0  0  0  0  0  0
   -7.6830    2.0504   -5.9515 O   0  0  0  0  0  0  0  0  0  0  0  0
   -8.6870    1.6050   -6.8615 C   0  0  0  0  0  0  0  0  0  0  0  0
   -8.2603    1.7420   -8.3222 C   0  0  0  0  0  0  0  0  0  0  0  0
   -9.2448    1.1449   -9.3398 C   0  0  0  0  0  0  0  0  0  0  0  0
  2  1  1  0
  3  2  1  0
  4  3  1  0
  5  4  1  0
  6  5  1  0
  6  1  1  0
  7  1  1  0
  8  7  1  0
  9  8  2  0
 10  8  1  0
 11 10  1  0
 12 11  2  0
 13 11  1  0
 14 12  1  0
 15 13  2  0
 16 14  2  0
 16 15  1  0
 17 16  1  0
 18 17  1  0
 19 18  2  0
 20 18  1  0
 21 20  1  0
 22 21  1  0
 23 22  1  0
M  END
>  <SMILES>  (34) 
CCCOC(=O)Nc1ccc(NC(=O)NC2CCCCC2)cc1

>  <scaffold>  (34) 
cyclohexane

$$$$

     RDKit          3D

 24 26  0  0  0  0  0  0  0  0999 V2000
    0.0000    0.0000    0.0000 C   0  0  0  0  0  0  0  0  0  0  0  0
    0.0000    0.0000    1.5279 C   0  0  0  0  0  0  0  0  0  0  0  0
    1.4333   -0.0000    2.0570 C   0  0  0  0  0  0  0  0  0  0  0  0
    2.1739    1.2355    1.5477 C   0  0  0  0  0  0  0  0  0  0  0  0
    2.1950    1.2410    0.0200 C   0  0  0  0  0  0  0  0  0  0  0  0
    0.7660    1.2448   -0.5208 C   0  0  0  0  0  0  0  0  0  0  0  0
    0.7339    1.3020   -1.9622 N   0  0  0  0  0  0  0  0  0  0  0  0
    0.2279    2.3238   -2.6793 C   0  0  0  0  0  0  0  0  0  0  0  0
   -0.2598    3.3150   -2.1729 O   0  0  0  0  0  0  0  0  0  0  0  0
    0.2394    2.1590   -4.1634 C   0  0  0  0  0  0  0  0  0  0  0  0
    0.0781    0.9035   -4.7475 C   0  0  0  0  0  0  0  0  0  0  0  0
    0.3477    3.2782   -4.9876 C   0  0  0  0  0  0  0  0  0  0  0  0
    0.0480    0.8122   -6.0529 N   0  0  0  0  0  0  0  0  0  0  0  0
    0.3135    3.1808   -6.3462 C   0  0  0  0  0  0  0  0  0  0  0  0
    0.1639    1.8620   -6.8765 C   0  0  0  0  0  0  0  0  0  0  0  0
    0.1755    1.7134   -8.2230 N   0  0  0  0  0  0  0  0  0  0  0  0
    0.0552    0.3565   -8.6986 C   0  0  0  0  0  0  0  0  0  0  0  0
   -1.2895    0.0853   -9.3099 C   0  0  0  0  0  0  0  0  0  0  0  0
   -2.5015    0.6120   -8.9470 C   0  0  0  0  0  0  0  0  0  0  0  0
   -1.5253   -0.8371  -10.3612 C   0  0  0  0  0  0  0  0  0  0  0  0
   -3.4817    0.0891   -9.6951 O   0  0  0  0  0  0  0  0  0  0  0  0
   -2.8739   -0.7895  -10.5494 C   0  0  0  0  0  0  0  0  0  0  0  0
   -3.6851   -1.5993  -11.4932 C   0  0  0  0  0  0  0  0  0  0  0  0
   -2.9718   -2.1743  -12.5440 O   0  0  0  0  0  0  0  0  0  0  0  0
  2  1  1  0
  3  2  1  0
  4  3  1  0
  5  4  1  0
  6  5  1  0
  6  1  1  0
  7  6  1  0
  8  7  1  0
  9  8  2  0
 10  8  1  0
 11 10  2  0
 12 10  1  0
 13 11  1  0
 14 12  2  0
 15 14  1  0
 15 13  2  0
 16 15  1  0
 17 16  1  0
 18 17  1  0
 19 18  2  0
 20 18  1  0
 21 19  1  0
 22 21  1  0
 22 20  2  0
 23 22  1  0
 24 23  1  0
M  END
>  <SMILES>  (35) 
O=C(NC1CCCCC1)c1ccc(NCc2coc(CO)c2)nc1

>  <scaffold>  (35) 
cyclohexane

$$$$

     RDKit          3D

 24 25  0  0  0  0  0  0  0  0999 V2000
    0.0000   -0.0000   -0.0000 C   0  0  0  0  0  0  0  0  0  0  0  0
   -0.0000    0.0000    1.5279 C   0  0  0  0  0  0  0  0  0  0  0  0
    1.4333    0.0000    2.0570 C   0  0  0  0  0  0  0  0  0  0  0  0
    2.1739   -1.2355    1.5477 C   0  0  0  0  0  0  0  0  0  0  0  0
    0.7406   -1.2355   -0.5093 C   0  0  0  0  0  0  0  0  0  0  0  0
    2.1950   -1.2410    0.0200 C   0  0  0  0  0  0  0  0  0  0  0  0
    2.8609   -2.4549   -0.4143 N   0  0  0  0  0  0  0  0  0  0  0  0
    3.8814   -2.4010   -1.3037 C   0  0  0  0  0  0  0  0  0  0  0  0
    4.3560   -1.3642   -1.7627 O   0  0  0  0  0  0  0  0  0  0  0  0
    4.3378   -3.6267   -1.6258 N   0  0  0  0  0  0  0  0  0  0  0  0
    5.3813   -3.7840   -2.5976 C   0  0  1  0  0  0  0  0  0  0  0  0
    6.5221   -4.5760   -1.9607 C   0  0  0  0  0  0  0  0  0  0  0  0
    4.8684   -4.4839   -3.8551 C   0  0  0  0  0  0  0  0  0  0  0  0
    5.5599   -4.8490   -4.7399 O   0  0  0  0  0  0  0  0  0  0  0  0
    3.5495   -4.6678   -3.8517 O   0  0  0  0  0  0  0  0  0  0  0  0
    2.7870   -5.3112   -4.8026 C   0  0  0  0  0  0  0  0  0  0  0  0
    1.4005   -5.2500   -4.6703 C   0  0  0  0  0  0  0  0  0  0  0  0
    3.2892   -6.0052   -5.8924 C   0  0  0  0  0  0  0  0  0  0  0  0
    0.5348   -5.8967   -5.5258 C   0  0  0  0  0  0  0  0  0  0  0  0
    2.4191   -6.6573   -6.7521 C   0  0  0  0  0  0  0  0  0  0  0  0
    1.0403   -6.6494   -6.5742 C   0  0  0  0  0  0  0  0  0  0  0  0
    2.9642   -7.3707   -7.7874 F   0  0  0  0  0  0  0  0  0  0  0  0
    0.1463   -7.2307   -7.4224 O   0  0  0  0  0  0  0  0  0  0  0  0
    0.4637   -8.3489   -8.1922 C   0  0  0  0  0  0  0  0  0  0  0  0
  2  1  1  0
  3  2  1  0
  4  3  1  0
  5  1  1  0
  6  5  1  0
  6  4  1  0
  7  6  1  0
  8  7  1  0
  9  8  2  0
 10  8  1  0
 11 10  1  0
 11 12  1  1
 13 11  1  0
 14 13  2  0
 15 13  1  0
 16 15  1  0
 17 16  2  0
 18 16  1  0
 19 17  1  0
 20 18  2  0
 21 20  1  0
 21 19  2  0
 22 20  1  0
 23 21  1  0
 24 23  1  0
M  END
>  <SMILES>  (36) 
COc1ccc(OC(=O)C(C)NC(=O)NC2CCCCC2)cc1F

>  <scaffold>  (36) 
cyclohexane

$$$$

     RDKit          3D

 24 26  0  0  0  0  0  0  0  0999 V2000
   -0.0000    0.0000    0.0000 C   0  0  0  0  0  0  0  0  0  0  0  0
   -0.0000   -0.0000    1.5279 C   0  0  0  0  0  0  0  0  0  0  0  0
    1.4333   -0.0000    2.0570 C   0  0  0  0  0  0  0  0  0  0  0  0
    2.1739   -1.2355    1.5477 C   0  0  0  0  0  0  0  0  0  0  0  0
    0.7406   -1.2355   -0.5093 C   0  0  0  0  0  0  0  0  0  0  0  0
    2.1951   -1.2410    0.0112 C   0  0  0  0  0  0  0  0  0  0  0  0
    2.9298   -2.3645   -0.5177 N   0  0  0  0  0  0  0  0  0  0  0  0
    2.5824   -3.6623   -0.2907 C   0  0  0  0  0  0  0  0  0  0  0  0
    4.1320   -2.3248   -1.1904 C   0  0  0  0  0  0  0  0  0  0  0  0
    3.4568   -4.4348   -0.8505 N   0  0  0  0  0  0  0  0  0  0  0  0
    4.4845   -3.6713   -1.4626 C   0  0  0  0  0  0  0  0  0  0  0  0
    4.9535   -1.2851   -1.6239 C   0  0  0  0  0  0  0  0  0  0  0  0
    5.6109   -4.0457   -2.1785 C   0  0  0  0  0  0  0  0  0  0  0  0
    6.0786   -1.6592   -2.3265 C   0  0  0  0  0  0  0  0  0  0  0  0
    6.3617   -2.9813   -2.6042 C   0  0  0  0  0  0  0  0  0  0  0  0
    7.5497   -3.2314   -3.2895 O   0  0  0  0  0  0  0  0  0  0  0  0
    7.6977   -4.2131   -4.2113 C   0  0  0  0  0  0  0  0  0  0  0  0
    6.7647   -4.9181   -4.5415 O   0  0  0  0  0  0  0  0  0  0  0  0
    8.9622   -4.2821   -4.6926 N   0  0  0  0  0  0  0  0  0  0  0  0
    9.3798   -5.1991   -5.7253 C   0  0  0  0  0  0  0  0  0  0  0  0
   10.4087   -6.2030   -5.2077 C   0  0  0  0  0  0  0  0  0  0  0  0
   10.7761   -7.1822   -6.3215 C   0  0  0  0  0  0  0  0  0  0  0  0
   11.7638   -8.2428   -5.8379 C   0  0  0  0  0  0  0  0  0  0  0  0
   12.0573   -9.2317   -6.9769 C   0  0  0  0  0  0  0  0  0  0  0  0
  2  1  1  0
  3  2  1  0
  4  3  1  0
  5  1  1  0
  6  5  1  0
  6  4  1  0
  7  6  1  0
  8  7  1  0
  9  7  1  0
 10  8  2  0
 11 10  1  0
 11  9  2  0
 12  9  1  0
 13 11  1  0
 14 12  2  0
 15 14  1  0
 15 13  2  0
 16 15  1  0
 17 16  1  0
 18 17  2  0
 19 17  1  0
 20 19  1  0
 21 20  1  0
 22 21  1  0
 23 22  1  0
 24 23  1  0
M  END
>  <SMILES>  (37) 
CCCCCNC(=O)Oc1ccc2c(c1)ncn2C1CCCCC1

>  <scaffold>  (37) 
cyclohexane

$$$$

     RDKit          3D

 29 30  0  0  0  0  0  0  0  0999 V2000
   -0.0000    0.0000   -0.0000 C   0  0  0  0  0  0  0  0  0  0  0  0
   -0.0000    0.0000    1.5279 C   0  0  0  0  0  0  0  0  0  0  0  0
    1.4251    0.0000    2.0540 C   0  0  0  0  0  0  0  0  0  0  0  0
    2.1657   -1.2355    1.5447 C   0  0  0  0  0  0  0  0  0  0  0  0
    2.2535   -1.3132    0.0125 C   0  0  0  0  0  0  0  0  0  0  0  0
    0.7869   -1.1777   -0.5729 C   0  0  0  0  0  0  0  0  0  0  0  0
    2.9302   -2.5484   -0.4300 N   0  0  0  0  0  0  0  0  0  0  0  0
    4.3709   -2.4804   -0.4714 C   0  0  0  0  0  0  0  0  0  0  0  0
    2.1483   -3.6333   -0.6463 C   0  0  0  0  0  0  0  0  0  0  0  0
    0.9471   -3.5377   -0.7347 O   0  0  0  0  0  0  0  0  0  0  0  0
    2.7585   -4.8783   -0.7922 N   0  0  0  0  0  0  0  0  0  0  0  0
    2.0013   -6.0381   -0.7383 N   0  0  0  0  0  0  0  0  0  0  0  0
    1.2418   -6.2854    0.3656 C   0  0  0  0  0  0  0  0  0  0  0  0
    0.0775   -7.4363    0.1953 S   0  0  0  0  0  0  0  0  0  0  0  0
    1.4643   -5.6389    1.5261 N   0  0  0  0  0  0  0  0  0  0  0  0
    0.6528   -5.6813    2.7184 C   0  0  0  0  0  0  0  0  0  0  0  0
   -0.3502   -4.5663    2.7980 C   0  0  0  0  0  0  0  0  0  0  0  0
   -0.8722   -3.8328    1.7857 C   0  0  0  0  0  0  0  0  0  0  0  0
   -0.8383   -4.2186    4.0130 O   0  0  0  0  0  0  0  0  0  0  0  0
   -1.7680   -3.0072    2.4635 C   0  0  0  0  0  0  0  0  0  0  0  0
   -1.7412   -3.2500    3.8119 C   0  0  0  0  0  0  0  0  0  0  0  0
   -2.4789   -2.7201    4.9756 C   0  0  0  0  0  0  0  0  0  0  0  0
   -3.4443   -3.7706    5.5224 C   0  0  0  0  0  0  0  0  0  0  0  0
   -4.2778   -3.1242    6.6277 C   0  0  0  0  0  0  0  0  0  0  0  0
   -5.2538   -4.1890    7.0983 C   0  0  0  0  0  0  0  0  0  0  0  0
   -6.1509   -3.5734    8.1709 C   0  0  0  0  0  0  0  0  0  0  0  0
   -7.1446   -4.6634    8.5695 C   0  0  0  0  0  0  0  0  0  0  0  0
   -8.1033   -4.0786    9.6054 C   0  0  0  0  0  0  0  0  0  0  0  0
   -9.1049   -5.1862    9.9285 C   0  0  0  0  0  0  0  0  0  0  0  0
  2  1  1  0
  3  2  1  0
  4  3  1  0
  5  4  1  0
  6  5  1  0
  6  1  1  0
  7  5  1  0
  8  7  1  0
  9  7  1  0
 10  9  2  0
 11  9  1  0
 12 11  1  0
 13 12  1  0
 14 13  2  0
 15 13  1  0
 16 15  1  0
 17 16  1  0
 18 17  2  0
 19 17  1  0
 20 18  1  0
 21 20  2  0
 21 19  1  0
 22 21  1  0
 23 22  1  0
 24 23  1  0
 25 24  1  0
 26 25  1  0
 27 26  1  0
 28 27  1  0
 29 28  1  0
M  END
>  <SMILES>  (38) 
CCCCCCCCc1ccc(CNC(=S)NNC(=O)N(C)C2CCCCC2)o1

>  <scaffold>  (38) 
cyclohexane

$$$$

     RDKit          3D

 26 28  0  0  0  0  0  0  0  0999 V2000
   -0.0000    0.0000   -0.0000 C   0  0  0  0  0  0  0  0  0  0  0  0
   -0.0000   -0.0000    1.5279 C   0  0  0  0  0  0  0  0  0  0  0  0
    1.4333    0.0000    2.0570 C   0  0  0  0  0  0  0  0  0  0  0  0
    0.7406   -1.2355   -0.5093 C   0  0  0  0  0  0  0  0  0  0  0  0
    2.1739   -1.2355    1.5477 C   0  0  0  0  0  0  0  0  0  0  0  0
    2.1810   -1.2355   -0.0000 C   0  0  0  0  0  0  0  0  0  0  0  0
   -1.3452   -0.0000   -0.5442 N   0  0  0  0  0  0  0  0  0  0  0  0
   -1.8184    1.0005   -1.3390 C   0  0  0  0  0  0  0  0  0  0  0  0
   -1.1649    1.9899   -1.6044 O   0  0  0  0  0  0  0  0  0  0  0  0
   -3.0859    0.7988   -1.7966 N   0  0  0  0  0  0  0  0  0  0  0  0
   -3.8463    1.7922   -2.5155 C   0  0  0  0  0  0  0  0  0  0  0  0
   -4.8744    2.4311   -1.6264 C   0  0  0  0  0  0  0  0  0  0  0  0
   -4.7490    3.6012   -0.9397 C   0  0  0  0  0  0  0  0  0  0  0  0
   -6.4136    1.6595   -1.3558 S   0  0  0  0  0  0  0  0  0  0  0  0
   -5.8842    3.8877   -0.1537 C   0  0  0  0  0  0  0  0  0  0  0  0
   -6.8901    2.9203   -0.2666 C   0  0  0  0  0  0  0  0  0  0  0  0
   -8.2122    2.8558    0.4429 C   0  0  0  0  0  0  0  0  0  0  0  0
   -8.0608    2.1923    1.7721 C   0  0  0  0  0  0  0  0  0  0  0  0
   -7.8657    2.8410    2.8835 N   0  0  0  0  0  0  0  0  0  0  0  0
   -8.0048    0.8016    1.9987 C   0  0  0  0  0  0  0  0  0  0  0  0
   -7.7276    1.9009    3.8492 O   0  0  0  0  0  0  0  0  0  0  0  0
   -7.8120    0.7333    3.3458 C   0  0  0  0  0  0  0  0  0  0  0  0
   -7.7187   -0.4145    4.2695 C   0  0  0  0  0  0  0  0  0  0  0  0
   -9.0231   -0.6705    5.0227 C   0  0  0  0  0  0  0  0  0  0  0  0
   -9.0531   -1.9738    5.8195 C   0  0  0  0  0  0  0  0  0  0  0  0
  -10.3887   -2.2070    6.5047 C   0  0  0  0  0  0  0  0  0  0  0  0
  2  1  1  0
  3  2  1  0
  4  1  1  0
  5  3  1  0
  6  5  1  0
  6  4  1  0
  7  1  1  0
  8  7  1  0
  9  8  2  0
 10  8  1  0
 11 10  1  0
 12 11  1  0
 13 12  2  0
 14 12  1  0
 15 13  1  0
 16 15  2  0
 16 14  1  0
 17 16  1  0
 18 17  1  0
 19 18  2  0
 20 18  1  0
 21 19  1  0
 22 21  1  0
 22 20  2  0
 23 22  1  0
 24 23  1  0
 25 24  1  0
 26 25  1  0
M  END
>  <SMILES>  (39) 
CCCCc1cc(Cc2ccc(CNC(=O)NC3CCCCC3)s2)no1

>  <scaffold>  (39) 
cyclohexane

$$$$

     RDKit          3D

 22 24  0  0  0  0  0  0  0  0999 V2000
    0.0000   -0.0000    0.0000 C   0  0  0  0  0  0  0  0  0  0  0  0
   -0.0000   -0.0000    1.5279 C   0  0  0  0  0  0  0  0  0  0  0  0
    1.4333    0.0000    2.0570 C   0  0  0  0  0  0  0  0  0  0  0  0
    2.2202    1.1777    1.4840 C   0  0  0  0  0  0  0  0  0  0  0  0
    0.7869    1.1777   -0.5729 C   0  0  0  0  0  0  0  0  0  0  0  0
    2.2403    1.0877   -0.0410 C   0  0  0  0  0  0  0  0  0  0  0  0
    3.0174    2.1526   -0.6274 N   0  0  0  0  0  0  0  0  0  0  0  0
    4.1380    1.9762   -1.3248 C   0  0  0  0  0  0  0  0  0  0  0  0
    4.7542    3.0960   -1.7503 N   0  0  0  0  0  0  0  0  0  0  0  0
    4.5942    0.7514   -1.5796 N   0  0  0  0  0  0  0  0  0  0  0  0
    5.8338    2.9682   -2.4795 C   0  0  0  0  0  0  0  0  0  0  0  0
    5.6865    0.6225   -2.3169 C   0  0  0  0  0  0  0  0  0  0  0  0
    6.3809    1.7188   -2.7682 C   0  0  0  0  0  0  0  0  0  0  0  0
    7.7841    1.6079   -3.7960 S   0  0  0  0  0  6  0  0  0  0  0  0
    8.5063    0.4473   -3.3087 O   0  0  0  0  0  0  0  0  0  0  0  0
    8.5405    2.8330   -3.8903 O   0  0  0  0  0  0  0  0  0  0  0  0
    7.0163    1.2182   -5.3693 C   0  0  0  0  0  0  0  0  0  0  0  0
    6.2705    2.1628   -6.0082 C   0  0  0  0  0  0  0  0  0  0  0  0
    7.1616   -0.0473   -5.9158 C   0  0  0  0  0  0  0  0  0  0  0  0
    5.6214    1.8937   -7.1938 C   0  0  0  0  0  0  0  0  0  0  0  0
    6.5167   -0.3136   -7.0952 C   0  0  0  0  0  0  0  0  0  0  0  0
    5.6953    0.5995   -7.7069 C   0  0  0  0  0  0  0  0  0  0  0  0
  2  1  1  0
  3  2  1  0
  4  3  1  0
  5  1  1  0
  6  5  1  0
  6  4  1  0
  7  6  1  0
  8  7  1  0
  9  8  2  0
 10  8  1  0
 11  9  1  0
 12 10  2  0
 13 12  1  0
 13 11  2  0
 14 13  1  0
 15 14  2  0
 16 14  2  0
 17 14  1  0
 18 17  2  0
 19 17  1  0
 20 18  1  0
 21 19  2  0
 22 21  1  0
 22 20  2  0
M  END
>  <SMILES>  (40) 
O=S(=O)(c1ccccc1)c1cnc(NC2CCCCC2)nc1

>  <scaffold>  (40) 
cyclohexane

$$$$

     RDKit          3D

 37 40  0  0  0  0  0  0  0  0999 V2000
   -0.0000   -0.0000   -0.0000 C   0  0  0  0  0  0  0  0  0  0  0  0
    0.0000   -0.0000    1.5279 C   0  0  0  0  0  0  0  0  0  0  0  0
    1.4333   -0.0000    2.0570 C   0  0  0  0  0  0  0  0  0  0  0  0
    0.7406   -1.2355   -0.5093 C   0  0  0  0  0  0  0  0  0  0  0  0
    2.1633   -1.3054    0.0670 C   0  0  0  0  0  0  0  0  0  0  0  0
    2.1739   -1.2355    1.5477 C   0  0  0  0  0  0  0  0  0  0  0  0
    2.7985   -2.5049   -0.3978 N   0  0  0  0  0  0  0  0  0  0  0  0
    3.7096   -2.4967   -1.3376 N   0  0  0  0  0  0  0  0  0  0  0  0
    2.4490   -3.6916    0.0302 N   0  0  0  0  0  0  0  0  0  0  0  0
    4.0048   -3.7281   -1.5201 N   0  0  0  0  0  0  0  0  0  0  0  0
    3.2472   -4.4891   -0.6915 C   0  0  0  0  0  0  0  0  0  0  0  0
    3.3109   -5.8378   -0.5810 N   0  0  0  0  0  0  0  0  0  0  0  0
    4.0375   -6.5711   -1.5890 C   0  0  0  0  0  0  0  0  0  0  0  0
    2.4212   -6.5816    0.2496 C   0  0  0  0  0  0  0  0  0  0  0  0
    2.2137   -6.1371    1.5460 C   0  0  0  0  0  0  0  0  0  0  0  0
    1.8046   -7.7412   -0.2181 C   0  0  0  0  0  0  0  0  0  0  0  0
    1.4013   -6.8509    2.4004 C   0  0  0  0  0  0  0  0  0  0  0  0
    0.9913   -8.4533    0.6369 C   0  0  0  0  0  0  0  0  0  0  0  0
    0.8353   -8.0524    1.9765 C   0  0  0  0  0  0  0  0  0  0  0  0
    0.0791   -8.8028    2.7882 O   0  0  0  0  0  0  0  0  0  0  0  0
   -0.4371   -8.3855    4.0142 C   0  0  0  0  0  0  0  0  0  0  0  0
   -1.2122   -7.2006    4.0950 C   0  0  0  0  0  0  0  0  0  0  0  0
   -0.3368   -9.2443    5.1078 C   0  0  0  0  0  0  0  0  0  0  0  0
   -1.7485   -6.8504    5.3333 C   0  0  0  0  0  0  0  0  0  0  0  0
   -0.8826   -8.8914    6.3412 C   0  0  0  0  0  0  0  0  0  0  0  0
   -1.5906   -7.6582    6.4586 C   0  0  0  0  0  0  0  0  0  0  0  0
    0.2349  -10.4716    5.0601 O   0  0  0  0  0  0  0  0  0  0  0  0
   -2.0542   -7.3339    7.6981 N   0  0  0  0  0  0  0  0  0  0  0  0
   -2.8761   -6.1800    7.9714 C   0  0  0  0  0  0  0  0  0  0  0  0
   -2.8771   -5.9371    9.4799 C   0  0  0  0  0  0  0  0  0  0  0  0
   -1.5214   -5.3968    9.9319 C   0  0  0  0  0  0  0  0  0  0  0  0
   -1.4880   -5.0852   11.4273 C   0  0  0  0  0  0  0  0  0  0  0  0
   -0.1321   -4.4984   11.8168 C   0  0  0  0  0  0  0  0  0  0  0  0
   -0.1314   -4.2563   13.3254 C   0  0  0  0  0  0  0  0  0  0  0  0
    1.1869   -3.6172   13.7589 C   0  0  0  0  0  0  0  0  0  0  0  0
    1.1153   -3.3467   15.2610 C   0  0  0  0  0  0  0  0  0  0  0  0
    2.4712   -2.7612   15.6521 C   0  0  0  0  0  0  0  0  0  0  0  0
  2  1  1  0
  3  2  1  0
  4  1  1  0
  5  4  1  0
  6  5  1  0
  6  3  1  0
  7  5  1  0
  8  7  1  0
  9  7  1  0
 10  8  2  0
 11 10  1  0
 11  9  2  0
 12 11  1  0
 13 12  1  0
 14 12  1  0
 15 14  2  0
 16 14  1  0
 17 15  1  0
 18 16  2  0
 19 18  1  0
 19 17  2  0
 20 19  1  0
 21 20  2  0
 22 21  1  0
 23 21  1  0
 24 22  2  0
 25 23  2  0
 26 24  1  0
 26 25  1  0
 27 23  1  0
 28 26  2  0
 29 28  1  0
 30 29  1  0
 31 30  1  0
 32 31  1  0
 33 32  1  0
 34 33  1  0
 35 34  1  0
 36 35  1  0
 37 36  1  0
M  CHG  4  20   1  25  -1  28   1  37  -1
M  END
>  <SMILES>  (41) 
[CH2-]CCCCCCCC[NH+]=C1[C-]=C(O)C(=[O+]c2ccc(N(C)c3nnn(C4CCCCC4)n3)cc2)C=C1

>  <scaffold>  (41) 
cyclohexane

$$$$

     RDKit          3D

 24 26  0  0  0  0  0  0  0  0999 V2000
    0.0000   -0.0000    0.0000 C   0  0  0  0  0  0  0  0  0  0  0  0
   -0.0000    0.0000    1.5279 C   0  0  0  0  0  0  0  0  0  0  0  0
    1.4333   -0.0000    2.0570 C   0  0  0  0  0  0  0  0  0  0  0  0
    2.1739   -1.2355    1.5477 C   0  0  0  0  0  0  0  0  0  0  0  0
    0.7406   -1.2355   -0.5093 C   0  0  0  0  0  0  0  0  0  0  0  0
    2.1951   -1.2410    0.0112 C   0  0  0  0  0  0  0  0  0  0  0  0
    3.0077   -2.3283   -0.5250 N   0  0  0  0  0  0  0  0  0  0  0  0
    2.7395   -3.6603   -0.2943 C   0  0  0  0  0  0  0  0  0  0  0  0
    1.8603   -4.1624    0.3394 O   0  0  0  0  0  0  0  0  0  0  0  0
    4.1358   -2.1089   -1.3282 C   0  0  0  0  0  0  0  0  0  0  0  0
    4.5585   -1.0123   -1.6637 O   0  0  0  0  0  0  0  0  0  0  0  0
    3.7838   -4.3030   -0.9407 N   0  0  0  0  0  0  0  0  0  0  0  0
    4.6785   -3.4278   -1.5960 C   0  0  0  0  0  0  0  0  0  0  0  0
    5.8044   -3.7627   -2.2864 C   0  0  0  0  0  0  0  0  0  0  0  0
    3.8392   -5.7441   -0.9820 C   0  0  0  0  0  0  0  0  0  0  0  0
    6.2347   -5.0234   -2.4249 N   0  0  0  0  0  0  0  0  0  0  0  0
    7.3827   -5.4833   -3.0510 C   0  0  0  0  0  0  0  0  0  0  0  0
    7.6271   -6.8632   -3.0066 C   0  0  0  0  0  0  0  0  0  0  0  0
    8.2532   -4.6742   -3.7798 C   0  0  0  0  0  0  0  0  0  0  0  0
    8.7944   -7.3663   -3.5792 C   0  0  0  0  0  0  0  0  0  0  0  0
    9.4097   -5.1678   -4.3440 C   0  0  0  0  0  0  0  0  0  0  0  0
    9.6789   -6.5266   -4.2381 C   0  0  0  0  0  0  0  0  0  0  0  0
   10.8390   -6.9934   -4.8723 N   0  0  0  0  0  0  0  0  0  0  0  0
   11.1855   -8.2630   -5.1938 C   0  0  0  0  0  0  0  0  0  0  0  0
  2  1  1  0
  3  2  1  0
  4  3  1  0
  5  1  1  0
  6  5  1  0
  6  4  1  0
  7  6  1  0
  8  7  1  0
  9  8  2  0
 10  7  1  0
 11 10  2  0
 12  8  1  0
 13 12  1  0
 13 10  1  0
 14 13  2  0
 15 12  1  0
 16 14  1  0
 17 16  1  0
 18 17  2  0
 19 17  1  0
 20 18  1  0
 21 19  2  0
 22 20  2  0
 22 21  1  0
 23 22  1  0
 24 23  1  0
M  END
>  <SMILES>  (42) 
CNc1ccc(NC=C2C(=O)N(C3CCCCC3)C(=O)N2C)cc1

>  <scaffold>  (42) 
cyclohexane

$$$$

     RDKit          3D

 21 23  0  0  0  0  0  0  0  0999 V2000
   -0.0000   -0.0000   -0.0000 C   0  0  0  0  0  0  0  0  0  0  0  0
   -0.0000   -0.0000    1.5279 C   0  0  0  0  0  0  0  0  0  0  0  0
    1.4333    0.0000    2.0570 C   0  0  0  0  0  0  0  0  0  0  0  0
    0.7869    1.1777   -0.5729 C   0  0  0  0  0  0  0  0  0  0  0  0
    2.1739    1.2355    1.5477 C   0  0  0  0  0  0  0  0  0  0  0  0
    2.2033    1.1777   -0.0000 C   0  0  0  0  0  0  0  0  0  0  0  0
    2.8839    2.3260   -0.5256 N   0  0  0  0  0  0  0  0  0  0  0  0
    3.9402    2.2358   -1.2677 N   0  0  0  0  0  0  0  0  0  0  0  0
    2.5074    3.5485   -0.1834 N   0  0  0  0  0  0  0  0  0  0  0  0
    4.2393    3.4608   -1.5899 N   0  0  0  0  0  0  0  0  0  0  0  0
    3.3452    4.2648   -0.9170 C   0  0  0  0  0  0  0  0  0  0  0  0
    3.3308    5.6187   -0.9641 N   0  0  0  0  0  0  0  0  0  0  0  0
    2.4270    6.2869   -0.2357 N   0  0  0  0  0  0  0  0  0  0  0  0
    2.4192    7.5616   -0.3452 C   0  0  0  0  0  0  0  0  0  0  0  0
    1.5091    8.3203    0.4490 C   0  0  0  0  0  0  0  0  0  0  0  0
    0.5480    7.9895    1.3915 C   0  0  0  0  0  0  0  0  0  0  0  0
    1.5028    9.6624    0.2645 O   0  0  0  0  0  0  0  0  0  0  0  0
    0.0057    9.1805    1.8720 C   0  0  0  0  0  0  0  0  0  0  0  0
    0.6128   10.1438    1.1537 C   0  0  0  0  0  0  0  0  0  0  0  0
    0.3564   11.6321    1.1291 C   0  0  0  0  0  0  0  0  0  0  0  0
   -0.3451   12.1045    2.2273 O   0  0  0  0  0  0  0  0  0  0  0  0
  2  1  1  0
  3  2  1  0
  4  1  1  0
  5  3  1  0
  6  5  1  0
  6  4  1  0
  7  6  1  0
  8  7  1  0
  9  7  1  0
 10  8  2  0
 11 10  1  0
 11  9  2  0
 12 11  1  0
 13 12  1  0
 14 13  2  0
 15 14  1  0
 16 15  2  0
 17 15  1  0
 18 16  1  0
 19 18  2  0
 19 17  1  0
 20 19  1  0
 21 20  1  0
M  END
>  <SMILES>  (43) 
OCc1ccc(C=NNc2nnn(C3CCCCC3)n2)o1

>  <scaffold>  (43) 
cyclohexane

$$$$

     RDKit          3D

 20 21  0  0  0  0  0  0  0  0999 V2000
    0.0000    0.0000    0.0000 C   0  0  0  0  0  0  0  0  0  0  0  0
    0.0000   -0.0000    1.5279 C   0  0  0  0  0  0  0  0  0  0  0  0
    1.4333    0.0000    2.0570 C   0  0  0  0  0  0  0  0  0  0  0  0
    2.1739   -1.2355    1.5477 C   0  0  0  0  0  0  0  0  0  0  0  0
    0.7406   -1.2355   -0.5093 C   0  0  0  0  0  0  0  0  0  0  0  0
    2.1262   -1.3104    0.0224 C   0  0  0  0  0  0  0  0  0  0  0  0
    2.7919   -2.5166   -0.4062 N   0  0  0  0  0  0  0  0  0  0  0  0
    3.9175   -2.6320   -1.1793 C   0  0  0  0  0  0  0  0  0  0  0  0
    2.3373   -3.7259   -0.0531 N   0  0  0  0  0  0  0  0  0  0  0  0
    4.1573   -3.9876   -1.2448 C   0  0  0  0  0  0  0  0  0  0  0  0
    3.1732   -4.6039   -0.5470 C   0  0  0  0  0  0  0  0  0  0  0  0
    2.9354   -6.0874   -0.3909 C   0  0  0  0  0  0  0  0  0  0  0  0
    4.5655   -1.5186   -1.7328 N   0  0  0  0  0  0  0  0  0  0  0  0
    1.8955   -6.4409    0.6712 C   0  0  0  0  0  0  0  0  0  0  0  0
    2.5183   -6.6761   -1.7377 C   0  0  0  0  0  0  0  0  0  0  0  0
    4.2201   -6.7656    0.1098 C   0  0  0  0  0  0  0  0  0  0  0  0
    5.4671   -4.7520   -2.1831 S   0  0  0  0  0  6  0  0  0  0  0  0
    5.7823   -3.9082   -3.3103 O   0  0  0  0  0  0  0  0  0  0  0  0
    5.0818   -6.1274   -2.4387 O   0  0  0  0  0  0  0  0  0  0  0  0
    6.7902   -4.8826   -0.9640 C   0  0  0  0  0  0  0  0  0  0  0  0
  2  1  1  0
  3  2  1  0
  4  3  1  0
  5  1  1  0
  6  5  1  0
  6  4  1  0
  7  6  1  0
  8  7  1  0
  9  7  1  0
 10  8  2  0
 11 10  1  0
 11  9  2  0
 12 11  1  0
 13  8  1  0
 14 12  1  0
 15 12  1  0
 16 12  1  0
 17 10  1  0
 18 17  2  0
 19 17  2  0
 20 17  1  0
M  END
>  <SMILES>  (44) 
CC(C)(C)c1nn(C2CCCCC2)c(N)c1S(C)(=O)=O

>  <scaffold>  (44) 
cyclohexane

$$$$

     RDKit          3D

 17 18  0  0  0  0  0  0  0  0999 V2000
   -0.0000    0.0000    0.0000 C   0  0  0  0  0  0  0  0  0  0  0  0
   -0.0000   -0.0000    1.5279 C   0  0  0  0  0  0  0  0  0  0  0  0
    1.4333    0.0000    2.0570 C   0  0  0  0  0  0  0  0  0  0  0  0
    0.7869    1.1777   -0.5729 C   0  0  0  0  0  0  0  0  0  0  0  0
    2.2202    1.1777    1.4840 C   0  0  0  0  0  0  0  0  0  0  0  0
    2.2256    1.1070   -0.0637 C   0  0  0  0  0  0  0  0  0  0  0  0
    2.9383    2.2051   -0.6703 N   0  0  0  0  0  0  0  0  0  0  0  0
    3.9871    2.0194   -1.4824 C   0  0  0  0  0  0  0  0  0  0  0  0
    4.4589    0.9306   -1.8027 O   0  0  0  0  0  0  0  0  0  0  0  0
    4.6100    3.2729   -1.9517 C   0  0  0  0  0  0  0  0  0  0  0  0
    4.1732    4.4814   -1.6025 N   0  0  0  0  0  0  0  0  0  0  0  0
    5.6778    3.2110   -2.8460 C   0  0  0  0  0  0  0  0  0  0  0  0
    4.7307    5.5730   -2.0829 C   0  0  0  0  0  0  0  0  0  0  0  0
    6.2390    4.3164   -3.3324 N   0  0  0  0  0  0  0  0  0  0  0  0
    5.7854    5.3808   -2.9617 C   0  0  0  0  0  0  0  0  0  0  0  0
    6.0961    1.9944   -3.2449 O   0  0  0  0  0  0  0  0  0  0  0  0
    7.1920    1.8808   -4.0992 C   0  0  0  0  0  0  0  0  0  0  0  0
  2  1  1  0
  3  2  1  0
  4  1  1  0
  5  3  1  0
  6  5  1  0
  6  4  1  0
  7  6  1  0
  8  7  2  0
  9  8  1  0
 10  8  1  0
 11 10  1  0
 12 10  2  0
 13 11  2  0
 14 12  1  0
 15 13  1  0
 15 14  3  0
 16 12  1  0
 17 16  1  0
M  CHG  2   9  -1  14   1
M  END
>  <SMILES>  (45) 
COc1[n+]#ccnc1C([O-])=NC1CCCCC1

>  <scaffold>  (45) 
cyclohexane

$$$$

     RDKit          3D

 32 34  0  0  0  0  0  0  0  0999 V2000
   -0.0000   -0.0000    0.0000 C   0  0  0  0  0  0  0  0  0  0  0  0
   -0.0000    0.0000    1.5279 C   0  0  0  0  0  0  0  0  0  0  0  0
    1.4333    0.0000    2.0570 C   0  0  0  0  0  0  0  0  0  0  0  0
    0.7869    1.1777   -0.5729 C   0  0  0  0  0  0  0  0  0  0  0  0
    2.1739    1.2355    1.5477 C   0  0  0  0  0  0  0  0  0  0  0  0
    2.2339    1.2488   -0.0607 C   0  0  0  0  0  0  0  0  0  0  0  0
    2.8987    2.4694   -0.5327 N   0  0  0  0  0  0  0  0  0  0  0  0
    3.1082    2.7627   -1.8467 C   0  0  0  0  0  0  0  0  0  0  0  0
    2.7690    2.0491   -2.7608 O   0  0  0  0  0  0  0  0  0  0  0  0
    3.7936    3.9360   -1.9463 N   0  0  0  0  0  0  0  0  0  0  0  0
    3.9870    4.5259   -3.2488 C   0  0  0  0  0  0  0  0  0  0  0  0
    3.1671    5.8030   -3.4253 C   0  0  0  0  0  0  0  0  0  0  0  0
    1.6669    5.5229   -3.3517 C   0  0  0  0  0  0  0  0  0  0  0  0
    0.9022    6.8044   -3.5852 C   0  0  0  0  0  0  0  0  0  0  0  0
    0.2622    7.0820   -4.7830 C   0  0  0  0  0  0  0  0  0  0  0  0
    0.8287    7.7728   -2.5961 C   0  0  0  0  0  0  0  0  0  0  0  0
   -0.3820    8.2864   -4.9668 C   0  0  0  0  0  0  0  0  0  0  0  0
    0.1886    8.9705   -2.7798 C   0  0  0  0  0  0  0  0  0  0  0  0
   -0.4227    9.2627   -3.9837 C   0  0  0  0  0  0  0  0  0  0  0  0
   -1.2668   10.8326   -4.0402 S   0  0  0  0  0  0  0  0  0  0  0  0
   -1.8104   10.9414   -5.7785 C   0  0  0  0  0  0  0  0  0  0  0  0
   -0.6670   11.1590   -6.7683 C   0  0  0  0  0  0  0  0  0  0  0  0
   -1.1582   11.0999   -8.2046 C   0  0  2  0  0  0  0  0  0  0  0  0
   -1.4875    9.8152   -8.5171 F   0  0  0  0  0  0  0  0  0  0  0  0
   -0.1175   11.5261   -9.2131 C   0  0  0  0  0  0  0  0  0  0  0  0
    1.2445   11.4747   -9.0087 C   0  0  0  0  0  0  0  0  0  0  0  0
   -0.6316   11.8874  -10.4576 C   0  0  0  0  0  0  0  0  0  0  0  0
    2.0913   11.8409  -10.0219 C   0  0  0  0  0  0  0  0  0  0  0  0
    0.2243   12.2437  -11.4774 C   0  0  0  0  0  0  0  0  0  0  0  0
    1.6486   12.2709  -11.2720 C   0  0  0  0  0  0  0  0  0  0  0  0
    2.5288   12.5786  -12.2655 N   0  0  0  0  0  0  0  0  0  0  0  0
    3.9545   12.6758  -12.0666 C   0  0  0  0  0  0  0  0  0  0  0  0
  2  1  1  0
  3  2  1  0
  4  1  1  0
  5  3  1  0
  6  5  1  0
  6  4  1  0
  7  6  1  0
  8  7  2  0
  9  8  1  0
 10  8  1  0
 11 10  1  0
 12 11  1  0
 13 12  1  0
 14 13  1  0
 15 14  2  0
 16 14  1  0
 17 15  1  0
 18 16  2  0
 19 18  1  0
 19 17  1  0
 20 19  2  0
 21 20  1  0
 22 21  1  0
 23 22  1  0
 23 24  1  6
 25 23  1  0
 26 25  2  0
 27 25  1  0
 28 26  1  0
 29 27  2  0
 30 29  1  0
 30 28  2  0
 31 30  1  0
 32 31  1  0
M  CHG  2   9  -1  20   1
M  END
>  <SMILES>  (46) 
CNc1ccc(C(F)CC[S+]=C2C=CC(CCCNC([O-])=NC3CCCCC3)=CC2)cc1

>  <scaffold>  (46) 
cyclohexane

$$$$

     RDKit          3D

 16 16  0  0  0  0  0  0  0  0999 V2000
   -0.0000   -0.0000    0.0000 C   0  0  0  0  0  0  0  0  0  0  0  0
   -0.0000   -0.0000    1.5279 C   0  0  0  0  0  0  0  0  0  0  0  0
    1.4333   -0.0000    2.0570 C   0  0  0  0  0  0  0  0  0  0  0  0
    2.1739   -1.2355    1.5477 C   0  0  0  0  0  0  0  0  0  0  0  0
    2.1951   -1.2410    0.0112 C   0  0  0  0  0  0  0  0  0  0  0  0
    0.7775   -1.1502   -0.5515 C   0  0  0  0  0  0  0  0  0  0  0  0
    3.5744   -1.3098    2.0848 C   0  0  0  0  0  0  0  0  0  0  0  0
    4.1792   -0.2648    2.5080 N   0  0  0  0  0  0  0  0  0  0  0  0
    4.1719   -2.5343    2.0975 N   0  0  0  0  0  0  0  0  0  0  0  0
    5.4433   -0.2754    2.9503 N   0  0  0  0  0  0  0  0  0  0  0  0
    6.0179    0.7897    3.3177 C   0  0  0  0  0  0  0  0  0  0  0  0
    7.3978    0.8232    3.8648 C   0  0  0  0  0  0  0  0  0  0  0  0
    7.4119    1.2973    5.3171 C   0  0  0  0  0  0  0  0  0  0  0  0
    6.6599    0.3357    6.2360 C   0  0  0  0  0  0  0  0  0  0  0  0
    6.7500    0.8253    7.6804 C   0  0  0  0  0  0  0  0  0  0  0  0
    5.9861   -0.0982    8.4081 O   0  0  0  0  0  0  0  0  0  0  0  0
  2  1  1  0
  3  2  1  0
  4  3  1  0
  5  4  1  0
  6  5  1  0
  6  1  1  0
  7  4  1  0
  8  7  2  0
  9  7  1  0
 10  8  1  0
 11 10  2  0
 12 11  1  0
 13 12  1  0
 14 13  1  0
 15 14  1  0
 16 15  1  0
M  END
>  <SMILES>  (47) 
NC(=NN=CCCCCO)C1CCCCC1

>  <scaffold>  (47) 
cyclohexane

$$$$

     RDKit          3D

 32 34  0  0  0  0  0  0  0  0999 V2000
    0.0000    0.0000    0.0000 C   0  0  0  0  0  0  0  0  0  0  0  0
    0.0000   -0.0000    1.5279 C   0  0  0  0  0  0  0  0  0  0  0  0
    1.4333    0.0000    2.0570 C   0  0  0  0  0  0  0  0  0  0  0  0
    2.1739    1.2355    1.5477 C   0  0  0  0  0  0  0  0  0  0  0  0
    2.1259    1.3108    0.0136 C   0  0  0  0  0  0  0  0  0  0  0  0
    0.7406    1.2355   -0.5093 C   0  0  0  0  0  0  0  0  0  0  0  0
    2.8843    0.2443   -0.5743 N   0  0  0  0  0  0  0  0  0  0  0  0
    2.2993   -0.8818   -1.0025 N   0  0  0  0  0  0  0  0  0  0  0  0
    4.2320    0.1532   -0.6774 C   0  0  0  0  0  0  0  0  0  0  0  0
    3.2609   -1.6804   -1.4394 C   0  0  0  0  0  0  0  0  0  0  0  0
    4.5063   -1.0568   -1.2594 C   0  0  0  0  0  0  0  0  0  0  0  0
    3.1274   -2.8876   -2.0039 O   0  0  0  0  0  0  0  0  0  0  0  0
    1.7991   -3.3415   -2.1388 C   0  0  0  0  0  0  0  0  0  0  0  0
    0.9938   -2.5167   -3.1149 C   0  0  0  0  0  0  0  0  0  0  0  0
    1.5490   -1.7245   -4.0854 C   0  0  0  0  0  0  0  0  0  0  0  0
   -0.3972   -2.5911   -3.0586 C   0  0  0  0  0  0  0  0  0  0  0  0
    0.7588   -1.0155   -5.0013 C   0  0  0  0  0  0  0  0  0  0  0  0
   -1.1725   -1.8950   -3.9608 C   0  0  0  0  0  0  0  0  0  0  0  0
   -0.6244   -1.1793   -4.9422 C   0  0  0  0  0  0  0  0  0  0  0  0
    1.4203   -0.2252   -5.8807 O   0  0  0  0  0  0  0  0  0  0  0  0
    0.7424    0.4953   -6.8857 C   0  0  0  0  0  0  0  0  0  0  0  0
    0.3124   -0.4197   -8.0313 C   0  0  0  0  0  0  0  0  0  0  0  0
   -0.3835    0.3272   -9.1798 C   0  0  1  0  0  0  0  0  0  0  0  0
   -0.5879   -0.5981  -10.3894 C   0  0  0  0  0  0  0  0  0  0  0  0
   -1.5677    0.9201   -8.7440 O   0  0  0  0  0  0  0  0  0  0  0  0
   -2.7280    0.0800   -8.6672 C   0  0  0  0  0  0  0  0  0  0  0  0
   -3.6362    0.2249   -9.8983 C   0  0  0  0  0  0  0  0  0  0  0  0
   -4.1971    1.6413  -10.0147 C   0  0  0  0  0  0  0  0  0  0  0  0
   -5.0367    1.7459  -11.2659 C   0  0  0  0  0  0  0  0  0  0  0  0
   -5.2532    0.9412  -12.1312 O   0  0  0  0  0  0  0  0  0  0  0  0
   -5.5417    2.9777  -11.3015 O   0  0  0  0  0  0  0  0  0  0  0  0
   -6.4002    3.1845  -12.4113 C   0  0  0  0  0  0  0  0  0  0  0  0
  2  1  1  0
  3  2  1  0
  4  3  1  0
  5  4  1  0
  6  5  1  0
  6  1  1  0
  7  5  1  0
  8  7  1  0
  9  7  1  0
 10  8  2  0
 11 10  1  0
 11  9  2  0
 12 10  1  0
 13 12  1  0
 14 13  1  0
 15 14  2  0
 16 14  1  0
 17 15  1  0
 18 16  2  0
 19 18  1  0
 19 17  2  0
 20 17  1  0
 21 20  1  0
 22 21  1  0
 23 22  1  0
 23 24  1  6
 25 23  1  0
 26 25  1  0
 27 26  1  0
 28 27  1  0
 29 28  1  0
 30 29  2  0
 31 29  1  0
 32 31  1  0
M  END
>  <SMILES>  (48) 
COC(=O)CCCOC(C)CCOc1cccc(COc2ccn(C3CCCCC3)n2)c1

>  <scaffold>  (48) 
cyclohexane

$$$$

     RDKit          3D

 25 27  0  0  0  0  0  0  0  0999 V2000
   -0.0000    0.0000   -0.0000 C   0  0  0  0  0  0  0  0  0  0  0  0
    0.0000   -0.0000    1.5279 C   0  0  0  0  0  0  0  0  0  0  0  0
    1.4333   -0.0000    2.0570 C   0  0  0  0  0  0  0  0  0  0  0  0
    2.1739    1.2355    1.5477 C   0  0  0  0  0  0  0  0  0  0  0  0
    2.1950    1.2410    0.0200 C   0  0  0  0  0  0  0  0  0  0  0  0
    0.7406    1.2355   -0.5093 C   0  0  0  0  0  0  0  0  0  0  0  0
    2.9297    2.3645   -0.5089 N   0  0  0  0  0  0  0  0  0  0  0  0
    4.0311    2.2208   -1.2846 C   0  0  0  0  0  0  0  0  0  0  0  0
    4.5151    1.1223   -1.5486 O   0  0  0  0  0  0  0  0  0  0  0  0
    4.6079    3.5076   -1.7757 C   0  0  0  0  0  0  0  0  0  0  0  0
    5.9620    3.4480   -2.1346 C   0  0  0  0  0  0  0  0  0  0  0  0
    3.8791    4.6881   -1.9132 C   0  0  0  0  0  0  0  0  0  0  0  0
    6.5926    4.5586   -2.6527 C   0  0  0  0  0  0  0  0  0  0  0  0
    4.5120    5.7990   -2.4280 C   0  0  0  0  0  0  0  0  0  0  0  0
    5.9338    5.7724   -2.8434 C   0  0  0  0  0  0  0  0  0  0  0  0
    6.4283    6.9096   -3.3890 O   0  0  0  0  0  0  0  0  0  0  0  0
    7.7806    6.8310   -3.8089 C   0  0  0  0  0  0  0  0  0  0  0  0
    8.0713    8.2182   -4.3056 C   0  0  0  0  0  0  0  0  0  0  0  0
    7.8547    8.5111   -5.6430 C   0  0  0  0  0  0  0  0  0  0  0  0
    8.6238    9.1927   -3.4891 C   0  0  0  0  0  0  0  0  0  0  0  0
    8.0603    9.7826   -6.1334 C   0  0  0  0  0  0  0  0  0  0  0  0
    8.8285   10.4734   -3.9783 C   0  0  0  0  0  0  0  0  0  0  0  0
    8.4274   10.7710   -5.2703 C   0  0  0  0  0  0  0  0  0  0  0  0
    8.7598   12.3741   -5.8386 Cl  0  0  0  0  0  0  0  0  0  0  0  0
    9.4222   11.3898   -3.1503 N   0  0  0  0  0  0  0  0  0  0  0  0
  2  1  1  0
  3  2  1  0
  4  3  1  0
  5  4  1  0
  6  5  1  0
  6  1  1  0
  7  5  1  0
  8  7  1  0
  9  8  2  0
 10  8  1  0
 11 10  2  0
 12 10  1  0
 13 11  1  0
 14 12  2  0
 15 14  1  0
 15 13  2  0
 16 15  1  0
 17 16  1  0
 18 17  1  0
 19 18  2  0
 20 18  1  0
 21 19  1  0
 22 20  2  0
 23 21  2  0
 23 22  1  0
 24 23  1  0
 25 22  1  0
M  END
>  <SMILES>  (49) 
Nc1cc(COc2ccc(C(=O)NC3CCCCC3)cc2)ccc1Cl

>  <scaffold>  (49) 
cyclohexane

$$$$

     RDKit          3D

 27 29  0  0  0  0  0  0  0  0999 V2000
   -0.0000   -0.0000   -0.0000 C   0  0  0  0  0  0  0  0  0  0  0  0
    0.0000   -0.0000    1.5279 C   0  0  0  0  0  0  0  0  0  0  0  0
    1.4333    0.0000    2.0570 C   0  0  0  0  0  0  0  0  0  0  0  0
    0.7406    1.2355   -0.5093 C   0  0  0  0  0  0  0  0  0  0  0  0
    2.1739    1.2355    1.5477 C   0  0  0  0  0  0  0  0  0  0  0  0
    2.1810    1.2355   -0.0000 C   0  0  0  0  0  0  0  0  0  0  0  0
    2.8215    2.4427   -0.4629 N   0  0  0  0  0  0  0  0  0  0  0  0
    3.8930    2.4393   -1.2920 C   0  0  0  0  0  0  0  0  0  0  0  0
    4.4313    1.4358   -1.7356 O   0  0  0  0  0  0  0  0  0  0  0  0
    4.3135    3.8346   -1.6549 C   0  0  0  0  0  0  0  0  0  0  0  0
    3.4485    4.9029   -1.8335 C   0  0  0  0  0  0  0  0  0  0  0  0
    5.6587    4.0045   -1.9434 C   0  0  0  0  0  0  0  0  0  0  0  0
    3.8799    6.1631   -2.2171 C   0  0  0  0  0  0  0  0  0  0  0  0
    6.1000    5.2775   -2.2338 C   0  0  0  0  0  0  0  0  0  0  0  0
    5.2460    6.3450   -2.3665 C   0  0  0  0  0  0  0  0  0  0  0  0
    7.4372    5.4038   -2.4631 F   0  0  0  0  0  0  0  0  0  0  0  0
    5.6241    7.6038   -2.6950 O   0  0  0  0  0  0  0  0  0  0  0  0
    6.8937    7.7348   -3.2558 C   0  0  0  0  0  0  0  0  0  0  0  0
    7.6660    8.7877   -2.7908 C   0  0  0  0  0  0  0  0  0  0  0  0
    7.3172    6.9564   -4.3218 C   0  0  0  0  0  0  0  0  0  0  0  0
    8.9093    8.9863   -3.3515 C   0  0  0  0  0  0  0  0  0  0  0  0
    8.5638    7.1557   -4.8747 C   0  0  0  0  0  0  0  0  0  0  0  0
    9.4507    8.1950   -4.3636 C   0  0  0  0  0  0  0  0  0  0  0  0
   10.8257    8.3368   -4.9726 C   0  0  2  0  0  0  0  0  0  0  0  0
   11.8614    8.1830   -3.8599 C   0  0  0  0  0  0  0  0  0  0  0  0
   10.9450    9.7393   -5.5668 C   0  0  0  0  0  0  0  0  0  0  0  0
    9.9347   10.0445   -6.6715 C   0  0  0  0  0  0  0  0  0  0  0  0
  2  1  1  0
  3  2  1  0
  4  1  1  0
  5  3  1  0
  6  5  1  0
  6  4  1  0
  7  6  1  0
  8  7  1  0
  9  8  2  0
 10  8  1  0
 11 10  2  0
 12 10  1  0
 13 11  1  0
 14 12  2  0
 15 13  2  0
 15 14  1  0
 16 14  1  0
 17 15  1  0
 18 17  1  0
 19 18  2  0
 20 18  1  0
 21 19  1  0
 22 20  2  0
 23 22  1  0
 23 21  2  0
 24 23  1  0
 24 25  1  1
 26 24  1  0
 27 26  1  0
M  END
>  <SMILES>  (50) 
CCC(C)c1ccc(Oc2ccc(C(=O)NC3CCCCC3)cc2F)cc1

>  <scaffold>  (50) 
cyclohexane

$$$$
