
     RDKit          3D

 30 32  0  0  0  0  0  0  0  0999 V2000
    0.0000    0.0000    0.0000 C   0  0  0  0  0  0  0  0  0  0  0  0
    0.0000    0.0000    1.5279 C   0  0  0  0  0  0  0  0  0  0  0  0
    1.3975    0.0000    2.1236 C   0  0  0  0  0  0  0  0  0  0  0  0
    1.2556    0.5938   -0.6366 C   0  0  0  0  0  0  0  0  0  0  0  0
    2.2218    1.1116    1.6343 C   0  0  0  0  0  0  0  0  0  0  0  0
    1.8418    1.7017    0.3548 C   0  0  0  0  0  0  0  0  0  0  0  0
    2.2096    2.8091    0.0158 O   0  0  0  0  0  0  0  0  0  0  0  0
    2.2558   -0.4064   -0.8757 O   0  0  0  0  0  0  0  0  0  0  0  0
    2.0316   -1.1864    1.5794 N   0  0  0  0  0  0  0  0  0  0  0  0
    2.6102   -0.7649   -2.1001 C   0  0  0  0  0  0  0  0  0  0  0  0
    2.0868   -0.3222   -3.1034 O   0  0  0  0  0  0  0  0  0  0  0  0
    3.7857   -1.7093   -2.1886 C   0  0  0  0  0  0  0  0  0  0  0  0
    5.0959   -0.9148   -2.3901 C   0  0  0  0  0  0  0  0  0  0  0  0
    5.1260   -0.2325   -3.7765 C   0  0  0  0  0  0  0  0  0  0  0  0
    6.5385    0.1930   -4.0584 C   0  0  0  0  0  0  0  0  0  0  0  0
    6.9571    1.4756   -3.7400 C   0  0  0  0  0  0  0  0  0  0  0  0
    7.4475   -0.6895   -4.6011 C   0  0  0  0  0  0  0  0  0  0  0  0
    8.2827    1.8067   -3.9733 C   0  0  0  0  0  0  0  0  0  0  0  0
    8.7732   -0.3573   -4.8323 C   0  0  0  0  0  0  0  0  0  0  0  0
    9.2279    0.9437   -4.5054 C   0  0  0  0  0  0  0  0  0  0  0  0
    5.3909    0.0519   -1.2677 C   0  0  0  0  0  0  0  0  0  0  0  0
    5.8511    1.3419   -1.4814 C   0  0  0  0  0  0  0  0  0  0  0  0
    5.2103   -0.3261    0.0537 C   0  0  0  0  0  0  0  0  0  0  0  0
    6.2269    2.1392   -0.4219 C   0  0  0  0  0  0  0  0  0  0  0  0
    5.5884    0.4760    1.1191 C   0  0  0  0  0  0  0  0  0  0  0  0
    6.1641    1.6990    0.8826 C   0  0  0  0  0  0  0  0  0  0  0  0
    9.8725   -1.5158   -5.4527 Cl  0  0  0  0  0  0  0  0  0  0  0  0
   10.8483    1.4311   -4.8304 Cl  0  0  0  0  0  0  0  0  0  0  0  0
    5.3480    0.0858    2.3940 O   0  0  0  0  0  0  0  0  0  0  0  0
    6.5724    2.4371    1.9626 O   0  0  0  0  0  0  0  0  0  0  0  0
  1  2  1  0
  1  4  1  0
  2  3  1  0
  3  5  1  0
  3  9  1  0
  4  6  1  0
  4  8  1  0
  5  6  1  0
  6  7  2  0
  8 10  1  0
 10 11  2  0
 10 12  1  0
 12 13  1  0
 13 14  1  0
 13 21  1  0
 14 15  1  0
 15 16  2  0
 15 17  1  0
 16 18  1  0
 17 19  2  0
 18 20  2  0
 19 20  1  0
 19 27  1  0
 20 28  1  0
 21 22  2  0
 21 23  1  0
 22 24  1  0
 23 25  2  0
 24 26  2  0
 25 26  1  0
 25 29  1  0
 26 30  1  0
M  END

$$$$

     RDKit          3D

 25 27  0  0  0  0  0  0  0  0999 V2000
    0.0000    0.0000    0.0000 C   0  0  0  0  0  0  0  0  0  0  0  0
    0.0000    0.0000    1.5366 C   0  0  0  0  0  0  0  0  0  0  0  0
    1.3154    0.0000    2.1493 C   0  0  0  0  0  0  0  0  0  0  0  0
    2.3712   -0.7054    1.3311 C   0  0  0  0  0  0  0  0  0  0  0  0
    1.6961   -1.8256    0.4263 C   0  0  0  0  0  0  0  0  0  0  0  0
    0.6871   -1.2854   -0.5896 C   0  0  0  0  0  0  0  0  0  0  0  0
    2.9854    0.2707    0.3156 C   0  0  0  0  0  0  0  0  0  0  0  0
    0.9481   -2.6770    1.2925 O   0  0  0  0  0  0  0  0  0  0  0  0
   -1.3578    0.1337   -0.4160 O   0  0  0  0  0  0  0  0  0  0  0  0
    0.6979    1.1643   -0.6222 C   0  0  0  0  0  0  0  0  0  0  0  0
    1.1982    2.2221   -0.0188 C   0  0  0  0  0  0  0  0  0  0  0  0
    2.0148    0.1971   -0.8734 C   0  0  0  0  0  0  0  0  0  0  0  0
    2.8006   -2.3859   -0.3457 C   0  0  0  0  0  0  0  0  0  0  0  0
    3.6711   -2.8764   -1.0002 C   0  0  0  0  0  0  0  0  0  0  0  0
    0.0871   -3.8140    1.0739 C   0  0  0  0  0  0  0  0  0  0  0  0
   -0.2719   -2.4539   -0.2676 C   0  0  0  0  0  0  0  0  0  0  0  0
    4.2761   -0.2362    0.0179 O   0  0  0  0  0  0  0  0  0  0  0  0
   -0.8976   -3.4320   -0.0300 C   0  0  0  0  0  0  0  0  0  0  0  0
    0.9579   -4.9911    0.6689 C   0  0  0  0  0  0  0  0  0  0  0  0
    2.0868   -5.3260    1.4151 C   0  0  0  0  0  0  0  0  0  0  0  0
    0.5167   -5.8423   -0.3432 C   0  0  0  0  0  0  0  0  0  0  0  0
    2.8782   -6.4138    1.1151 C   0  0  0  0  0  0  0  0  0  0  0  0
    1.3214   -6.9301   -0.6442 C   0  0  0  0  0  0  0  0  0  0  0  0
    2.4852   -7.2108    0.0719 C   0  0  0  0  0  0  0  0  0  0  0  0
    3.2534   -8.2572   -0.2879 F   0  0  0  0  0  0  0  0  0  0  0  0
  1  2  1  0
  1  6  1  0
  1  9  1  0
  1 10  1  0
  2  3  1  0
  3  4  1  0
  4  5  1  0
  4  7  1  0
  5  6  1  0
  5  8  1  0
  5 13  1  0
  6 16  1  0
  7 12  1  0
  7 17  1  0
  8 15  1  0
 10 11  2  0
 13 14  3  0
 15 18  1  0
 15 19  1  0
 16 18  3  0
 19 20  2  0
 19 21  1  0
 20 22  1  0
 21 23  2  0
 22 24  2  0
 23 24  1  0
 24 25  1  0
M  END

$$$$

     RDKit          3D

 24 25  0  0  0  0  0  0  0  0999 V2000
    0.0000    0.0000    0.0000 C   0  0  0  0  0  0  0  0  0  0  0  0
    0.0000    0.0000    1.4933 C   0  0  0  0  0  0  0  0  0  0  0  0
    1.3954    0.0000    2.1155 C   0  0  0  0  0  0  0  0  0  0  0  0
    1.2050    0.7223   -0.6439 C   0  0  0  0  0  0  0  0  0  0  0  0
    2.3871   -0.6626    1.1606 C   0  0  0  0  0  0  0  0  0  0  0  0
    2.4827    0.0393   -0.1317 C   0  0  0  0  0  0  0  0  0  0  0  0
    3.4153   -0.5164   -0.7807 N   0  0  0  0  0  0  0  0  0  0  0  0
    3.4543   -0.6847   -2.1012 N   0  0  0  0  0  0  0  0  0  0  0  0
    1.8221    1.4065    2.5637 C   0  0  0  0  0  0  0  0  0  0  0  0
    1.2050    2.2016   -0.2620 C   0  0  0  0  0  0  0  0  0  0  0  0
    4.5166   -1.2536   -2.7700 C   0  0  0  0  0  0  0  0  0  0  0  0
    4.4278   -1.4028   -3.9797 O   0  0  0  0  0  0  0  0  0  0  0  0
    1.0438    0.5556   -2.1453 C   0  0  0  0  0  0  0  0  0  0  0  0
    1.1125    1.4520   -3.0350 N   0  0  0  0  0  0  0  0  0  0  0  0
    5.5946   -1.6548   -1.8988 C   0  0  0  0  0  0  0  0  0  0  0  0
    6.7648   -2.1931   -2.3890 C   0  0  0  0  0  0  0  0  0  0  0  0
    5.5705   -1.4468   -0.1685 S   0  0  0  0  0  0  0  0  0  0  0  0
    7.6174   -2.4200   -1.2889 C   0  0  0  0  0  0  0  0  0  0  0  0
    7.1337   -2.0846   -0.0332 C   0  0  0  0  0  0  0  0  0  0  0  0
    7.1163   -2.5199   -3.7940 C   0  0  0  0  0  0  0  0  0  0  0  0
    1.8066    2.5013    1.5105 C   0  0  0  0  0  0  0  0  0  0  0  0
    3.0514    2.3274    0.8711 O   0  0  0  0  0  0  0  0  0  0  0  0
    0.7838   -0.8155   -2.6764 C   0  0  0  0  0  0  0  0  0  0  0  0
    3.0808    3.1219   -0.2837 C   0  0  0  0  0  0  0  0  0  0  0  0
  1  2  1  0
  1  4  1  0
  2  3  1  0
  3  5  1  0
  3  9  1  0
  4  6  1  0
  4 10  1  0
  4 13  1  0
  5  6  1  0
  6  7  2  3
  7  8  1  0
  8 11  1  0
  9 21  1  0
 11 12  2  0
 11 15  1  0
 13 14  2  0
 13 23  1  0
 15 16  2  0
 15 17  1  0
 16 18  1  0
 16 20  1  0
 17 19  1  0
 18 19  2  0
 21 22  1  0
 22 24  1  0
M  END

$$$$

     RDKit          3D

 21 22  0  0  0  0  0  0  0  0999 V2000
    0.0000    0.0000    0.0000 C   0  0  0  0  0  0  0  0  0  0  0  0
    0.0000    0.0000    1.5813 C   0  0  0  0  0  0  0  0  0  0  0  0
    1.3770    0.0000    2.0896 C   0  0  0  0  0  0  0  0  0  0  0  0
    2.3518   -0.6513    1.1509 C   0  0  0  0  0  0  0  0  0  0  0  0
    2.5078    0.0449   -0.1804 C   0  0  0  0  0  0  0  0  0  0  0  0
    1.2304    0.7814   -0.5077 C   0  0  0  0  0  0  0  0  0  0  0  0
    2.4728   -1.3858    2.3677 N   0  0  0  0  0  0  0  0  0  0  0  0
    3.6479   -0.0607    0.7782 C   0  0  0  0  0  0  0  0  0  0  0  0
    1.6104    2.0819   -1.1754 C   0  0  0  0  0  0  0  0  0  0  0  0
   -0.5886   -1.1013    2.0864 F   0  0  0  0  0  0  0  0  0  0  0  0
   -0.6938    1.0383    2.0864 F   0  0  0  0  0  0  0  0  0  0  0  0
    3.6390    1.1088    1.7478 C   0  0  0  0  0  0  0  0  0  0  0  0
    3.3447    2.2303    0.6993 C   0  0  0  0  0  0  0  0  0  0  0  0
    4.3318    2.3059   -0.4990 C   0  0  0  0  0  0  0  0  0  0  0  0
    4.1622    1.3355   -1.4064 F   0  0  0  0  0  0  0  0  0  0  0  0
    3.3673    3.5051    1.5570 C   0  0  0  0  0  0  0  0  0  0  0  0
    2.9958    4.4848    0.7226 F   0  0  0  0  0  0  0  0  0  0  0  0
    2.4941    3.5198    2.5623 F   0  0  0  0  0  0  0  0  0  0  0  0
    5.5929    2.2283   -0.0102 F   0  0  0  0  0  0  0  0  0  0  0  0
    4.5739    3.8397    1.9875 F   0  0  0  0  0  0  0  0  0  0  0  0
    4.4297    3.4013   -1.2364 F   0  0  0  0  0  0  0  0  0  0  0  0
  1  2  1  0
  1  6  1  0
  2  3  1  0
  2 10  1  0
  2 11  1  0
  3  4  1  0
  4  5  1  0
  4  7  1  0
  4  8  1  0
  5  6  1  0
  5  8  1  0
  6  9  1  0
  8 12  1  0
 12 13  1  0
 13 14  1  0
 13 16  1  0
 14 15  1  0
 14 19  1  0
 14 21  1  0
 16 17  1  0
 16 18  1  0
 16 20  1  0
M  END

$$$$

     RDKit          3D

 31 32  0  0  0  0  0  0  0  0999 V2000
    0.0000    0.0000    0.0000 C   0  0  0  0  0  0  0  0  0  0  0  0
    0.0000    0.0000    1.5543 C   0  0  0  0  0  0  0  0  0  0  0  0
    1.4217    0.0000    2.1604 C   0  0  0  0  0  0  0  0  0  0  0  0
    1.1844    0.7914   -0.5762 C   0  0  0  0  0  0  0  0  0  0  0  0
    2.5671   -0.0373   -0.1600 C   0  0  0  0  0  0  0  0  0  0  0  0
    2.4212   -0.6377    1.1901 C   0  0  0  0  0  0  0  0  0  0  0  0
    2.7188   -1.8563    1.3522 N   0  0  0  0  0  0  0  0  0  0  0  0
    2.6775   -2.4958    2.5370 O   0  0  0  0  0  0  0  0  0  0  0  0
   -1.3011    0.5389   -0.5697 C   0  0  0  0  0  0  0  0  0  0  0  0
   -2.3115    0.6888    0.1639 N   0  0  0  0  0  0  0  0  0  0  0  0
   -1.3011    0.9934   -2.0011 C   0  0  0  0  0  0  0  0  0  0  0  0
   -3.3583    1.2511   -0.5954 O   0  0  0  0  0  0  0  0  0  0  0  0
   -0.9218   -1.1233    1.9974 C   0  0  0  0  0  0  0  0  0  0  0  0
   -2.0844   -1.0087    2.2463 O   0  0  0  0  0  0  0  0  0  0  0  0
   -0.2838   -2.3170    2.0539 O   0  0  0  0  0  0  0  0  0  0  0  0
    1.1080    0.8066   -2.1021 C   0  0  0  0  0  0  0  0  0  0  0  0
    1.1844    2.2603   -0.2634 C   0  0  0  0  0  0  0  0  0  0  0  0
    0.0158    3.0196   -0.2286 C   0  0  0  0  0  0  0  0  0  0  0  0
    2.4023    2.8619   -0.0301 C   0  0  0  0  0  0  0  0  0  0  0  0
    0.0704    4.3751    0.0150 C   0  0  0  0  0  0  0  0  0  0  0  0
    2.4579    4.2650    0.2208 C   0  0  0  0  0  0  0  0  0  0  0  0
    1.2737    5.0439    0.2348 C   0  0  0  0  0  0  0  0  0  0  0  0
    3.7232    4.6774    0.3720 O   0  0  0  0  0  0  0  0  0  0  0  0
    1.2747    6.3916    0.5231 O   0  0  0  0  0  0  0  0  0  0  0  0
    4.0586    6.0238    0.5737 C   0  0  0  0  0  0  0  0  0  0  0  0
    0.6048    7.2702   -0.3140 C   0  0  0  0  0  0  0  0  0  0  0  0
    1.4336    8.1814   -0.9668 C   0  0  0  0  0  0  0  0  0  0  0  0
   -0.7822    7.3140   -0.5144 C   0  0  0  0  0  0  0  0  0  0  0  0
    0.8716    9.1520   -1.7949 C   0  0  0  0  0  0  0  0  0  0  0  0
   -1.3430    8.2833   -1.3449 C   0  0  0  0  0  0  0  0  0  0  0  0
   -0.5050    9.2507   -1.9246 C   0  0  0  0  0  0  0  0  0  0  0  0
  1  2  1  0
  1  4  1  0
  1  9  1  0
  2  3  1  0
  2 13  1  0
  3  6  1  0
  4 16  1  0
  4 17  1  0
  5  6  1  0
  6  7  2  3
  7  8  1  0
  9 10  2  3
  9 11  1  0
 10 12  1  0
 13 14  2  0
 13 15  1  0
 17 18  2  0
 17 19  1  0
 18 20  1  0
 19 21  2  0
 20 22  2  0
 21 22  1  0
 21 23  1  0
 22 24  1  0
 23 25  1  0
 24 26  1  0
 26 27  2  0
 26 28  1  0
 27 29  1  0
 28 30  2  0
 29 31  2  0
 30 31  1  0
M  END

$$$$

     RDKit          3D

 29 31  0  0  0  0  0  0  0  0999 V2000
    0.0000    0.0000    0.0000 C   0  0  0  0  0  0  0  0  0  0  0  0
    0.0000    0.0000    1.5455 C   0  0  0  0  0  0  0  0  0  0  0  0
    1.4196    0.0000    2.1784 C   0  0  0  0  0  0  0  0  0  0  0  0
    1.2563    0.6715   -0.5762 C   0  0  0  0  0  0  0  0  0  0  0  0
    1.7260    1.8054    0.4064 C   0  0  0  0  0  0  0  0  0  0  0  0
    2.2086    1.1808    1.7454 C   0  0  0  0  0  0  0  0  0  0  0  0
    2.6489    2.1390    2.4307 N   0  0  0  0  0  0  0  0  0  0  0  0
    2.3909   -0.3568   -0.7043 C   0  0  0  0  0  0  0  0  0  0  0  0
   -0.7593    1.0238    2.1297 O   0  0  0  0  0  0  0  0  0  0  0  0
   -0.2003   -1.3505   -0.6258 C   0  0  0  0  0  0  0  0  0  0  0  0
   -0.0806   -2.5659    0.0793 C   0  0  0  0  0  0  0  0  0  0  0  0
   -0.4805   -1.5583   -1.9591 C   0  0  0  0  0  0  0  0  0  0  0  0
   -0.2831   -3.5747   -0.8495 C   0  0  0  0  0  0  0  0  0  0  0  0
   -0.5370   -2.8911   -2.1460 N   0  0  0  0  0  0  0  0  0  0  0  0
    2.9299    2.5339   -0.1427 C   0  0  0  0  0  0  0  0  0  0  0  0
    2.9288    3.6194   -0.6075 O   0  0  0  0  0  0  0  0  0  0  0  0
   -0.3291   -5.0460   -0.6558 C   0  0  0  0  0  0  0  0  0  0  0  0
    2.4153    2.0681    3.8033 O   0  0  0  0  0  0  0  0  0  0  0  0
    4.0568    1.7972   -0.1007 O   0  0  0  0  0  0  0  0  0  0  0  0
   -1.5661   -5.5988   -1.2630 C   0  0  0  0  0  0  0  0  0  0  0  0
   -1.8646   -5.5356   -2.5750 N   0  0  0  0  0  0  0  0  0  0  0  0
   -2.5105   -6.1949   -0.5802 N   0  0  0  0  0  0  0  0  0  0  0  0
   -3.0882   -6.0964   -2.7292 C   0  0  0  0  0  0  0  0  0  0  0  0
   -3.4684   -6.5020   -1.4529 C   0  0  0  0  0  0  0  0  0  0  0  0
   -1.0171   -4.9877   -3.6177 C   0  0  0  0  0  0  0  0  0  0  0  0
   -0.6660   -6.1180   -4.6115 C   0  0  0  0  0  0  0  0  0  0  0  0
   -1.2195   -5.6267   -5.9682 C   0  0  0  0  0  0  0  0  0  0  0  0
   -1.7892   -3.8433   -4.3125 C   0  0  0  0  0  0  0  0  0  0  0  0
   -2.2432   -4.7043   -5.6687 O   0  0  0  0  0  0  0  0  0  0  0  0
  1  2  1  0
  1  4  1  0
  1 10  1  0
  2  3  1  0
  2  9  1  0
  3  6  1  0
  4  5  1  0
  4  8  1  0
  5  6  1  0
  5 15  1  0
  6  7  2  3
  7 18  1  0
 10 11  1  0
 10 12  2  0
 11 13  2  0
 12 14  1  0
 13 14  1  0
 13 17  1  0
 15 16  2  0
 15 19  1  0
 17 20  1  0
 20 21  1  0
 20 22  2  0
 21 23  1  0
 21 25  1  0
 22 24  1  0
 23 24  2  0
 25 26  1  0
 25 28  1  0
 26 27  1  0
 27 29  1  0
M  END

$$$$

     RDKit          3D

 30 32  0  0  0  0  0  0  0  0999 V2000
    0.0000    0.0000    0.0000 C   0  0  0  0  0  0  0  0  0  0  0  0
    0.0000    0.0000    1.5813 C   0  0  0  0  0  0  0  0  0  0  0  0
    1.3831    0.0000    2.1442 C   0  0  0  0  0  0  0  0  0  0  0  0
    2.4660   -0.6490    1.2375 C   0  0  0  0  0  0  0  0  0  0  0  0
    1.2076    0.7238   -0.4978 C   0  0  0  0  0  0  0  0  0  0  0  0
    2.4828   -0.0076   -0.1782 C   0  0  0  0  0  0  0  0  0  0  0  0
    2.2066   -1.0171   -1.0506 C   0  0  0  0  0  0  0  0  0  0  0  0
    2.1536   -0.9927   -2.4840 C   0  0  0  0  0  0  0  0  0  0  0  0
    2.4809   -0.0049   -3.1643 N   0  0  0  0  0  0  0  0  0  0  0  0
    2.3598   -0.0117   -4.6187 C   0  0  0  0  0  0  0  0  0  0  0  0
    0.9975    0.5287   -4.9468 C   0  0  0  0  0  0  0  0  0  0  0  0
   -0.1421   -0.1603   -4.9600 C   0  0  0  0  0  0  0  0  0  0  0  0
    1.8660   -0.3963    3.5772 C   0  0  0  0  0  0  0  0  0  0  0  0
   -1.5014    0.3409   -5.1362 C   0  0  0  0  0  0  0  0  0  0  0  0
   -2.6089   -0.4705   -4.8939 C   0  0  0  0  0  0  0  0  0  0  0  0
   -1.7500    1.6522   -5.5101 C   0  0  0  0  0  0  0  0  0  0  0  0
   -3.9096   -0.0270   -4.9988 C   0  0  0  0  0  0  0  0  0  0  0  0
   -3.0439    2.0911   -5.6157 C   0  0  0  0  0  0  0  0  0  0  0  0
   -4.1572    1.3111   -5.3686 C   0  0  0  0  0  0  0  0  0  0  0  0
    2.0751   -2.1955   -0.3637 O   0  0  0  0  0  0  0  0  0  0  0  0
   -0.8711    0.8711    2.2166 O   0  0  0  0  0  0  0  0  0  0  0  0
   -5.4259    1.7804   -5.5323 N   0  0  0  0  0  0  0  0  0  0  0  0
    1.9285    1.3167    2.2036 O   0  0  0  0  0  0  0  0  0  0  0  0
    1.5076    0.4307    4.6094 O   0  0  0  0  0  0  0  0  0  0  0  0
    3.2682    1.2778    1.8825 C   0  0  0  0  0  0  0  0  0  0  0  0
    3.5090    0.9552   -4.9435 C   0  0  0  0  0  0  0  0  0  0  0  0
   -6.5681    1.0766   -5.0479 C   0  0  0  0  0  0  0  0  0  0  0  0
   -6.9068    1.2201   -3.5829 C   0  0  0  0  0  0  0  0  0  0  0  0
   -5.6209    3.1322   -6.0467 C   0  0  0  0  0  0  0  0  0  0  0  0
   -7.7031    1.9247   -4.6191 C   0  0  0  0  0  0  0  0  0  0  0  0
  1  2  1  0
  1  5  1  0
  2  3  1  0
  2 21  1  0
  3  4  1  0
  3 13  1  0
  3 23  1  0
  4  6  1  0
  5  6  1  0
  6  7  2  3
  7  8  1  0
  7 20  1  0
  8  9  2  3
  9 10  1  0
 10 11  1  0
 10 26  1  0
 11 12  2  3
 12 14  1  0
 13 24  1  0
 14 15  2  0
 14 16  1  0
 15 17  1  0
 16 18  2  0
 17 19  2  0
 18 19  1  0
 19 22  1  0
 22 27  1  0
 22 29  1  0
 23 25  1  0
 27 28  1  0
 27 30  1  0
 28 30  1  0
M  END

$$$$

     RDKit          3D

 15 15  0  0  0  0  0  0  0  0999 V2000
    0.0000    0.0000    0.0000 C   0  0  0  0  0  0  0  0  0  0  0  0
    0.0000    0.0000    1.4847 C   0  0  0  0  0  0  0  0  0  0  0  0
    1.4151    0.0000    2.0607 C   0  0  0  0  0  0  0  0  0  0  0  0
    2.3955   -0.6551    1.1167 C   0  0  0  0  0  0  0  0  0  0  0  0
    1.7020   -1.7401    0.1989 C   0  0  0  0  0  0  0  0  0  0  0  0
    0.6205   -1.1718   -0.6297 C   0  0  0  0  0  0  0  0  0  0  0  0
    1.2695   -2.8077    1.0677 O   0  0  0  0  0  0  0  0  0  0  0  0
    3.0518    0.0433   -0.0062 N   0  0  0  0  0  0  0  0  0  0  0  0
    3.7054   -1.1923    1.7363 C   0  0  0  0  0  0  0  0  0  0  0  0
    3.9814   -2.0460    2.5352 O   0  0  0  0  0  0  0  0  0  0  0  0
    3.6979    1.2630    0.1901 C   0  0  0  0  0  0  0  0  0  0  0  0
    4.1457    1.6035    1.2593 O   0  0  0  0  0  0  0  0  0  0  0  0
    2.6937   -2.3153   -0.7446 C   0  0  0  0  0  0  0  0  0  0  0  0
    3.8300   -1.7678   -0.3176 C   0  0  0  0  0  0  0  0  0  0  0  0
    3.7646    1.9812   -0.9475 N   0  0  0  0  0  0  0  0  0  0  0  0
  1  2  1  0
  1  6  1  0
  2  3  1  0
  3  4  1  0
  4  5  1  0
  4  8  1  0
  4  9  1  0
  5  6  1  0
  5  7  1  0
  5 13  1  0
  8 11  1  0
  9 10  2  0
 11 12  2  0
 11 15  1  0
 13 14  2  0
M  END

$$$$

     RDKit          3D

 12 12  0  0  0  0  0  0  0  0999 V2000
    0.0000    0.0000    0.0000 C   0  0  0  0  0  0  0  0  0  0  0  0
    0.0000    0.0000    1.5279 C   0  0  0  0  0  0  0  0  0  0  0  0
    1.4479    0.0000    2.1172 C   0  0  0  0  0  0  0  0  0  0  0  0
    0.7019   -1.1710   -0.6258 C   0  0  0  0  0  0  0  0  0  0  0  0
    2.4510   -0.6703    1.1513 C   0  0  0  0  0  0  0  0  0  0  0  0
    1.8618   -1.7429    0.2075 C   0  0  0  0  0  0  0  0  0  0  0  0
    0.5564   -1.3213   -1.9801 O   0  0  0  0  0  0  0  0  0  0  0  0
   -0.7448   -1.2426    2.0401 C   0  0  0  0  0  0  0  0  0  0  0  0
    3.1378    0.3868    0.3035 C   0  0  0  0  0  0  0  0  0  0  0  0
    3.2401    0.2993   -0.9041 O   0  0  0  0  0  0  0  0  0  0  0  0
    1.9520    1.4089    2.5035 C   0  0  0  0  0  0  0  0  0  0  0  0
    1.4354    2.0232    3.7729 N   0  0  0  0  0  0  0  0  0  0  0  0
  1  2  1  0
  1  4  1  0
  2  3  1  0
  2  8  1  0
  3  5  1  0
  3 11  1  0
  4  6  1  0
  4  7  1  0
  5  6  1  0
  5  9  1  0
  9 10  2  0
 11 12  1  0
M  END

$$$$

     RDKit          3D

 30 33  0  0  0  0  0  0  0  0999 V2000
    0.0000    0.0000    0.0000 C   0  0  0  0  0  0  0  0  0  0  0  0
    0.0000    0.0000    1.6087 C   0  0  0  0  0  0  0  0  0  0  0  0
    1.3717    0.0000    2.2203 C   0  0  0  0  0  0  0  0  0  0  0  0
    2.3627   -0.7350    1.3341 C   0  0  0  0  0  0  0  0  0  0  0  0
    1.2571    0.5207   -0.5504 C   0  0  0  0  0  0  0  0  0  0  0  0
    2.5466   -0.0440   -0.0161 C   0  0  0  0  0  0  0  0  0  0  0  0
   -1.2473    0.7476   -0.3755 C   0  0  0  0  0  0  0  0  0  0  0  0
   -1.6177    1.9687   -0.1598 N   0  0  0  0  0  0  0  0  0  0  0  0
   -2.2454    0.0807   -1.0685 N   0  0  0  0  0  0  0  0  0  0  0  0
   -2.8940    2.1167   -0.5642 N   0  0  0  0  0  0  0  0  0  0  0  0
   -3.3126    0.9631   -1.1305 C   0  0  0  0  0  0  0  0  0  0  0  0
   -4.7425    0.7853   -1.8661 S   0  0  0  0  0  0  0  0  0  0  0  0
   -2.1137   -1.2068   -1.5426 C   0  0  0  0  0  0  0  0  0  0  0  0
   -3.1677   -1.8781   -1.9568 N   0  0  0  0  0  0  0  0  0  0  0  0
   -0.9034   -1.7620   -1.5307 N   0  0  0  0  0  0  0  0  0  0  0  0
   -2.9857   -3.1085   -2.4537 C   0  0  0  0  0  0  0  0  0  0  0  0
   -0.7251   -2.9582   -2.0118 C   0  0  0  0  0  0  0  0  0  0  0  0
   -1.6916   -3.6240   -2.5108 C   0  0  0  0  0  0  0  0  0  0  0  0
   -4.2034   -3.8400   -2.8555 C   0  0  0  0  0  0  0  0  0  0  0  0
   -4.4865   -5.1324   -2.4160 C   0  0  0  0  0  0  0  0  0  0  0  0
   -5.1636   -3.1704   -3.6127 C   0  0  0  0  0  0  0  0  0  0  0  0
   -5.6671   -5.7604   -2.7808 C   0  0  0  0  0  0  0  0  0  0  0  0
   -6.3586   -3.8080   -3.9751 C   0  0  0  0  0  0  0  0  0  0  0  0
   -6.5381   -5.0294   -3.6011 C   0  0  0  0  0  0  0  0  0  0  0  0
   -7.6364   -5.6888   -3.9649 F   0  0  0  0  0  0  0  0  0  0  0  0
   -6.1341   -6.9700   -2.4158 O   0  0  0  0  0  0  0  0  0  0  0  0
   -0.7187   -1.3446    1.8007 C   0  0  0  0  0  0  0  0  0  0  0  0
    0.8148   -3.6332   -1.9157 Cl  0  0  0  0  0  0  0  0  0  0  0  0
   -4.9747   -1.9169   -4.0206 F   0  0  0  0  0  0  0  0  0  0  0  0
   -5.2899   -7.7401   -1.5894 C   0  0  0  0  0  0  0  0  0  0  0  0
  1  2  1  0
  1  5  1  0
  1  7  1  0
  2  3  1  0
  2 27  1  0
  3  4  1  0
  4  6  1  0
  5  6  1  0
  7  8  2  0
  7  9  1  0
  8 10  1  0
  9 11  1  0
  9 13  1  0
 10 11  2  0
 11 12  1  0
 13 14  2  0
 13 15  1  0
 14 16  1  0
 15 17  2  0
 16 18  2  0
 16 19  1  0
 17 18  1  0
 17 28  1  0
 19 20  2  0
 19 21  1  0
 20 22  1  0
 21 23  2  0
 21 29  1  0
 22 24  2  0
 22 26  1  0
 23 24  1  0
 24 25  1  0
 26 30  1  0
M  END

$$$$

     RDKit          3D

 31 33  0  0  0  0  0  0  0  0999 V2000
    0.0000    0.0000    0.0000 C   0  0  0  0  0  0  0  0  0  0  0  0
    0.0000    0.0000    1.5455 C   0  0  0  0  0  0  0  0  0  0  0  0
    1.4314    0.0000    2.1281 C   0  0  0  0  0  0  0  0  0  0  0  0
    1.1511    0.6899   -0.6151 C   0  0  0  0  0  0  0  0  0  0  0  0
    1.6260    1.8365    0.2761 C   0  0  0  0  0  0  0  0  0  0  0  0
    2.1733    1.3227    1.6782 C   0  0  0  0  0  0  0  0  0  0  0  0
    3.5147    1.4449    1.6721 O   0  0  0  0  0  0  0  0  0  0  0  0
    1.3836    2.1751    2.5751 N   0  0  0  0  0  0  0  0  0  0  0  0
    0.3154    2.7655    2.0234 C   0  0  0  0  0  0  0  0  0  0  0  0
    1.7639    2.7100    3.7870 C   0  0  0  0  0  0  0  0  0  0  0  0
   -0.4189    3.9467    3.0572 S   0  0  0  0  0  0  0  0  0  0  0  0
    0.8699    3.6259    4.1815 C   0  0  0  0  0  0  0  0  0  0  0  0
   -0.6162   -1.1529    2.0743 O   0  0  0  0  0  0  0  0  0  0  0  0
    2.8769    2.4098   -0.3256 C   0  0  0  0  0  0  0  0  0  0  0  0
    4.0826    1.7422   -0.3062 C   0  0  0  0  0  0  0  0  0  0  0  0
    2.7302    3.6859   -0.8875 C   0  0  0  0  0  0  0  0  0  0  0  0
    5.2280    2.3365   -0.8337 C   0  0  0  0  0  0  0  0  0  0  0  0
    3.8962    4.2901   -1.4231 C   0  0  0  0  0  0  0  0  0  0  0  0
    5.2129    3.5972   -1.3905 C   0  0  0  0  0  0  0  0  0  0  0  0
    1.2567    0.6522    3.4792 C   0  0  0  0  0  0  0  0  0  0  0  0
    0.1017    1.2922    3.5774 C   0  0  0  0  0  0  0  0  0  0  0  0
    0.3143   -1.8431    2.9064 C   0  0  0  0  0  0  0  0  0  0  0  0
    0.4459   -3.1608    2.4969 O   0  0  0  0  0  0  0  0  0  0  0  0
    4.2944    1.3151    2.8891 C   0  0  0  0  0  0  0  0  0  0  0  0
    5.2453    0.0999    2.8019 C   0  0  0  0  0  0  0  0  0  0  0  0
    6.1967   -0.0006    4.0045 C   0  0  0  0  0  0  0  0  0  0  0  0
    3.6439    5.5225   -1.8829 O   0  0  0  0  0  0  0  0  0  0  0  0
   -0.1045   -1.8599    4.2193 O   0  0  0  0  0  0  0  0  0  0  0  0
    4.3372   -1.0982    2.6556 C   0  0  0  0  0  0  0  0  0  0  0  0
    4.7879   -2.2972    3.0467 C   0  0  0  0  0  0  0  0  0  0  0  0
    7.0094    1.2703    4.0801 C   0  0  0  0  0  0  0  0  0  0  0  0
  1  2  1  0
  1  4  1  0
  2  3  1  0
  2 13  1  0
  3  6  1  0
  3 20  1  0
  4  5  1  0
  5  6  1  0
  5 14  1  0
  6  7  1  0
  6  8  1  0
  7 24  1  0
  8  9  1  0
  8 10  1  0
  9 11  1  0
 10 12  2  0
 11 12  1  0
 13 22  1  0
 14 15  2  0
 14 16  1  0
 15 17  1  0
 16 18  1  0
 17 19  2  0
 18 19  1  0
 18 27  1  0
 20 21  2  0
 22 23  1  0
 22 28  1  0
 24 25  1  0
 25 26  1  0
 25 29  1  0
 26 31  1  0
 29 30  2  0
M  END

$$$$

     RDKit          3D

 31 34  0  0  0  0  0  0  0  0999 V2000
    0.0000    0.0000    0.0000 C   0  0  0  0  0  0  0  0  0  0  0  0
    0.0000    0.0000    1.4933 C   0  0  0  0  0  0  0  0  0  0  0  0
    1.4646    0.0000    2.0894 C   0  0  0  0  0  0  0  0  0  0  0  0
    1.2628    0.5973   -0.6403 C   0  0  0  0  0  0  0  0  0  0  0  0
    2.4879   -0.1371   -0.2047 C   0  0  0  0  0  0  0  0  0  0  0  0
    2.3919   -0.7610    1.1290 C   0  0  0  0  0  0  0  0  0  0  0  0
    1.8813    1.3738    2.3952 C   0  0  0  0  0  0  0  0  0  0  0  0
    2.2760    2.2768    1.5678 N   0  0  0  0  0  0  0  0  0  0  0  0
    1.7973    1.8776    3.6500 O   0  0  0  0  0  0  0  0  0  0  0  0
    2.5073    3.4088    2.2901 N   0  0  0  0  0  0  0  0  0  0  0  0
    2.2011    3.1612    3.5883 C   0  0  0  0  0  0  0  0  0  0  0  0
    2.2063    4.1029    4.7473 C   0  0  0  0  0  0  0  0  0  0  0  0
    1.6941    5.4779    4.4270 C   0  0  0  0  0  0  0  0  0  0  0  0
    2.3957    6.1510    3.4279 C   0  0  0  0  0  0  0  0  0  0  0  0
    0.5728    6.0398    5.0173 C   0  0  0  0  0  0  0  0  0  0  0  0
    1.8873    7.3615    3.0087 C   0  0  0  0  0  0  0  0  0  0  0  0
    0.1146    7.2801    4.6572 C   0  0  0  0  0  0  0  0  0  0  0  0
    0.7256    7.9727    3.5014 C   0  0  0  0  0  0  0  0  0  0  0  0
    1.5178   -0.8110    3.2221 O   0  0  0  0  0  0  0  0  0  0  0  0
   -0.7951   -0.9688    2.1396 O   0  0  0  0  0  0  0  0  0  0  0  0
   -0.9647    7.7473    5.3450 F   0  0  0  0  0  0  0  0  0  0  0  0
    0.1632    9.1337    3.0876 N   0  0  0  0  0  0  0  0  0  0  0  0
   -1.1923    9.6059    3.3010 C   0  0  0  0  0  0  0  0  0  0  0  0
   -1.3908   10.7585    2.3044 C   0  0  0  0  0  0  0  0  0  0  0  0
   -1.3460   -0.3179    3.2023 C   0  0  0  0  0  0  0  0  0  0  0  0
   -1.1515    1.1180    3.1246 C   0  0  0  0  0  0  0  0  0  0  0  0
   -1.9949   -0.9346    4.0651 N   0  0  0  0  0  0  0  0  0  0  0  0
    0.0202   11.3522    2.1707 C   0  0  0  0  0  0  0  0  0  0  0  0
    0.1814   12.4985    1.7788 O   0  0  0  0  0  0  0  0  0  0  0  0
    0.9085   10.0127    2.2058 C   0  0  0  0  0  0  0  0  0  0  0  0
   -1.8763   10.2697    1.0924 O   0  0  0  0  0  0  0  0  0  0  0  0
  1  2  1  0
  1  4  1  0
  2  3  1  0
  2 20  1  0
  3  6  1  0
  3  7  1  0
  3 19  1  0
  4  5  1  0
  5  6  1  0
  7  8  2  0
  7  9  1  0
  8 10  1  0
  9 11  1  0
 10 11  2  0
 11 12  1  0
 12 13  1  0
 13 14  2  0
 13 15  1  0
 14 16  1  0
 15 17  2  0
 16 18  2  0
 17 18  1  0
 17 21  1  0
 18 22  1  0
 20 25  1  0
 22 23  1  0
 22 30  1  0
 23 24  1  0
 24 28  1  0
 24 31  1  0
 25 26  1  0
 25 27  2  0
 28 29  2  0
 28 30  1  0
M  END

$$$$

     RDKit          3D

 31 31  0  0  0  0  0  0  0  0999 V2000
    0.0000    0.0000    0.0000 C   0  0  0  0  0  0  0  0  0  0  0  0
    0.0000    0.0000    1.5018 C   0  0  0  0  0  0  0  0  0  0  0  0
    1.4314    0.0000    2.0845 C   0  0  0  0  0  0  0  0  0  0  0  0
    2.4932   -0.7095    1.2616 C   0  0  0  0  0  0  0  0  0  0  0  0
    1.8884   -1.8023    0.3969 C   0  0  0  0  0  0  0  0  0  0  0  0
    0.6677   -1.2491   -0.5729 C   0  0  0  0  0  0  0  0  0  0  0  0
    1.7868    1.4187    2.4621 C   0  0  0  0  0  0  0  0  0  0  0  0
    1.2585    2.0311    3.3595 O   0  0  0  0  0  0  0  0  0  0  0  0
    2.9758   -2.5025   -0.3496 C   0  0  0  0  0  0  0  0  0  0  0  0
    2.8016   -3.8068   -0.6378 C   0  0  0  0  0  0  0  0  0  0  0  0
    0.9760   -1.0158   -2.0511 C   0  0  0  0  0  0  0  0  0  0  0  0
    2.7504    2.0415    1.7417 N   0  0  0  0  0  0  0  0  0  0  0  0
    4.1754   -1.8038   -0.8761 C   0  0  0  0  0  0  0  0  0  0  0  0
    5.1591   -2.3565   -1.3270 O   0  0  0  0  0  0  0  0  0  0  0  0
    1.5852   -4.6197   -0.2623 C   0  0  0  0  0  0  0  0  0  0  0  0
   -0.2188   -2.4444   -0.4485 C   0  0  0  0  0  0  0  0  0  0  0  0
   -1.3968   -2.3849    0.0277 N   0  0  0  0  0  0  0  0  0  0  0  0
    4.0716   -0.2987   -0.8024 C   0  0  0  0  0  0  0  0  0  0  0  0
    3.9265   -4.4663   -1.3299 C   0  0  0  0  0  0  0  0  0  0  0  0
    4.9031   -3.9761   -1.8123 O   0  0  0  0  0  0  0  0  0  0  0  0
    3.8123   -5.8317   -1.3533 O   0  0  0  0  0  0  0  0  0  0  0  0
    0.0622   -0.1476   -2.8518 C   0  0  0  0  0  0  0  0  0  0  0  0
   -1.0405    0.4167   -2.2121 C   0  0  0  0  0  0  0  0  0  0  0  0
    0.2022    0.2219   -4.1722 C   0  0  0  0  0  0  0  0  0  0  0  0
   -1.8272    1.2495   -2.9784 C   0  0  0  0  0  0  0  0  0  0  0  0
   -0.5846    1.0570   -4.9359 C   0  0  0  0  0  0  0  0  0  0  0  0
   -1.6283    1.5786   -4.3185 C   0  0  0  0  0  0  0  0  0  0  0  0
   -2.4540    2.4640   -4.9605 O   0  0  0  0  0  0  0  0  0  0  0  0
   -2.1962   -3.5065    0.0774 O   0  0  0  0  0  0  0  0  0  0  0  0
   -0.2506    1.3484   -6.2326 O   0  0  0  0  0  0  0  0  0  0  0  0
   -2.2629    2.8659   -6.2986 C   0  0  0  0  0  0  0  0  0  0  0  0
  1  2  1  0
  1  6  1  0
  2  3  1  0
  3  4  1  0
  3  7  1  0
  4  5  1  0
  5  9  1  0
  6 11  1  0
  6 16  1  0
  7  8  2  0
  7 12  1  0
  9 10  2  3
  9 13  1  0
 10 15  1  0
 10 19  1  0
 11 22  1  0
 13 14  2  0
 13 18  1  0
 16 17  2  3
 17 29  1  0
 19 20  2  0
 19 21  1  0
 22 23  2  0
 22 24  1  0
 23 25  1  0
 24 26  2  0
 25 27  2  0
 26 27  1  0
 26 30  1  0
 27 28  1  0
 28 31  1  0
M  END

$$$$

     RDKit          3D

 23 24  0  0  0  0  0  0  0  0999 V2000
    0.0000    0.0000    0.0000 C   0  0  0  0  0  0  0  0  0  0  0  0
    0.0000    0.0000    1.5105 C   0  0  0  0  0  0  0  0  0  0  0  0
    1.4584    0.0000    2.0218 C   0  0  0  0  0  0  0  0  0  0  0  0
    2.2636    1.2050    1.4355 C   0  0  0  0  0  0  0  0  0  0  0  0
    1.8004    1.7203    0.0934 C   0  0  0  0  0  0  0  0  0  0  0  0
    1.3076    0.4919   -0.7044 C   0  0  0  0  0  0  0  0  0  0  0  0
   -0.7869    1.1777    2.0834 C   0  0  0  0  0  0  0  0  0  0  0  0
    1.5138   -0.1336    3.4326 O   0  0  0  0  0  0  0  0  0  0  0  0
    0.8034    0.8479   -1.9456 O   0  0  0  0  0  0  0  0  0  0  0  0
    2.1699   -1.1870    1.5325 N   0  0  0  0  0  0  0  0  0  0  0  0
    1.8881    1.1234    3.9725 C   0  0  0  0  0  0  0  0  0  0  0  0
    1.9906   -2.4628    2.0439 C   0  0  0  0  0  0  0  0  0  0  0  0
    1.4943   -2.7124    3.3138 C   0  0  0  0  0  0  0  0  0  0  0  0
    2.4307   -3.5159    1.2295 C   0  0  0  0  0  0  0  0  0  0  0  0
    1.3789   -4.0053    3.8002 C   0  0  0  0  0  0  0  0  0  0  0  0
    2.3174   -4.8073    1.7204 C   0  0  0  0  0  0  0  0  0  0  0  0
    1.7523   -5.0944    3.0425 C   0  0  0  0  0  0  0  0  0  0  0  0
    3.3370   -0.7432    0.7768 C   0  0  0  0  0  0  0  0  0  0  0  0
    2.8940   -3.2843   -0.0308 O   0  0  0  0  0  0  0  0  0  0  0  0
    2.4991   -0.5108   -0.8409 C   0  0  0  0  0  0  0  0  0  0  0  0
    2.5291   -1.3878   -2.1131 C   0  0  0  0  0  0  0  0  0  0  0  0
    1.4605   -2.3035   -2.0232 O   0  0  0  0  0  0  0  0  0  0  0  0
    3.8153   -2.1751   -2.2969 C   0  0  0  0  0  0  0  0  0  0  0  0
  1  2  1  0
  1  6  1  0
  2  3  1  0
  2  7  1  0
  3  4  1  0
  3  8  1  0
  3 10  1  0
  4  5  1  0
  5  6  1  0
  6  9  1  0
  6 20  1  0
  8 11  1  0
 10 12  1  0
 10 18  1  0
 12 13  2  0
 12 14  1  0
 13 15  1  0
 14 16  2  0
 14 19  1  0
 15 17  2  0
 16 17  1  0
 20 21  1  0
 21 22  1  0
 21 23  1  0
M  END

$$$$

     RDKit          3D

 19 19  0  0  0  0  0  0  0  0999 V2000
    0.0000    0.0000    0.0000 C   0  0  0  0  0  0  0  0  0  0  0  0
    0.0000    0.0000    1.5191 C   0  0  0  0  0  0  0  0  0  0  0  0
    1.4115    0.0000    2.1485 C   0  0  0  0  0  0  0  0  0  0  0  0
    2.5079   -0.5186    1.2774 C   0  0  0  0  0  0  0  0  0  0  0  0
    0.7994   -1.0779   -0.6151 C   0  0  0  0  0  0  0  0  0  0  0  0
    1.9397   -1.6095    0.3127 C   0  0  0  0  0  0  0  0  0  0  0  0
    3.1298   -2.0042   -0.5450 C   0  0  0  0  0  0  0  0  0  0  0  0
    3.3614   -1.4750   -1.6062 O   0  0  0  0  0  0  0  0  0  0  0  0
    2.9274    0.2520    0.1940 O   0  0  0  0  0  0  0  0  0  0  0  0
    3.8891   -2.9858   -0.0622 O   0  0  0  0  0  0  0  0  0  0  0  0
    1.9661    1.3389    2.7347 C   0  0  0  0  0  0  0  0  0  0  0  0
    1.8155   -1.1290    3.0097 C   0  0  0  0  0  0  0  0  0  0  0  0
    1.3935   -2.2553    2.8372 O   0  0  0  0  0  0  0  0  0  0  0  0
    1.3445    1.5173    4.1287 C   0  0  0  0  0  0  0  0  0  0  0  0
    3.4965    1.1609    2.8552 C   0  0  0  0  0  0  0  0  0  0  0  0
    1.5675    2.5697    1.8893 C   0  0  0  0  0  0  0  0  0  0  0  0
    2.6995   -0.6864    4.1516 C   0  0  0  0  0  0  0  0  0  0  0  0
    0.1710    3.1266    2.1071 C   0  0  0  0  0  0  0  0  0  0  0  0
   -0.7920   -1.0679    1.9892 O   0  0  0  0  0  0  0  0  0  0  0  0
  1  2  1  0
  1  5  1  0
  2  3  1  0
  2 19  1  0
  3  4  1  0
  3 11  1  0
  3 12  1  0
  4  6  1  0
  4  9  1  0
  5  6  1  0
  6  7  1  0
  7  8  2  0
  7 10  1  0
 11 14  1  0
 11 15  1  0
 11 16  1  0
 12 13  2  0
 12 17  1  0
 16 18  1  0
M  END

$$$$

     RDKit          3D

 30 31  0  0  0  0  0  0  0  0999 V2000
    0.0000    0.0000    0.0000 C   0  0  0  0  0  0  0  0  0  0  0  0
    0.0000    0.0000    1.5191 C   0  0  0  0  0  0  0  0  0  0  0  0
    1.4115    0.0000    2.1485 C   0  0  0  0  0  0  0  0  0  0  0  0
    2.5079   -0.5186    1.2774 C   0  0  0  0  0  0  0  0  0  0  0  0
    0.7994   -1.0779   -0.6151 C   0  0  0  0  0  0  0  0  0  0  0  0
    1.9397   -1.6095    0.3127 C   0  0  0  0  0  0  0  0  0  0  0  0
    3.0611   -2.1233   -0.4829 N   0  0  0  0  0  0  0  0  0  0  0  0
    3.3322    0.5060    0.5168 N   0  0  0  0  0  0  0  0  0  0  0  0
    3.9589   -1.4874   -1.2734 C   0  0  0  0  0  0  0  0  0  0  0  0
    3.7228   -0.4364   -1.8206 O   0  0  0  0  0  0  0  0  0  0  0  0
    0.4343    1.2139   -0.5909 O   0  0  0  0  0  0  0  0  0  0  0  0
    5.1391   -2.1628   -1.3602 O   0  0  0  0  0  0  0  0  0  0  0  0
   -1.3088   -0.1941   -0.7639 C   0  0  0  0  0  0  0  0  0  0  0  0
    1.0771    1.1612   -1.8816 C   0  0  0  0  0  0  0  0  0  0  0  0
    2.5115    1.7114   -1.8484 C   0  0  0  0  0  0  0  0  0  0  0  0
    0.2325    1.9387   -2.9030 C   0  0  0  0  0  0  0  0  0  0  0  0
   -0.9936    1.2907   -3.1588 O   0  0  0  0  0  0  0  0  0  0  0  0
    1.5172   -2.8714    1.0810 C   0  0  0  0  0  0  0  0  0  0  0  0
    3.3164    1.0187   -0.9699 O   0  0  0  0  0  0  0  0  0  0  0  0
    6.1154   -1.6405   -2.1809 C   0  0  0  0  0  0  0  0  0  0  0  0
    6.1774   -2.0650   -3.5074 C   0  0  0  0  0  0  0  0  0  0  0  0
    7.0024   -0.7252   -1.6991 C   0  0  0  0  0  0  0  0  0  0  0  0
    7.1777   -1.6026   -4.3613 C   0  0  0  0  0  0  0  0  0  0  0  0
    8.0608   -0.1948   -2.4947 C   0  0  0  0  0  0  0  0  0  0  0  0
    8.0621   -0.7363   -3.8303 N   0  0  0  0  0  0  0  0  0  0  0  0
    9.2787    0.8592   -2.1123 S   0  0  0  0  0  0  0  0  0  0  0  0
    7.3653   -1.9679   -5.6042 O   0  0  0  0  0  0  0  0  0  0  0  0
    5.1837   -3.0643   -3.9748 C   0  0  0  0  0  0  0  0  0  0  0  0
    4.8625   -4.0088   -3.2570 O   0  0  0  0  0  0  0  0  0  0  0  0
    4.6048   -2.8645   -5.1574 N   0  0  0  0  0  0  0  0  0  0  0  0
  1  2  1  0
  1  5  1  0
  1 11  1  0
  1 13  1  0
  2  3  1  0
  3  4  1  0
  4  6  1  0
  4  8  1  0
  5  6  1  0
  6  7  1  0
  6 18  1  0
  7  9  1  0
  9 10  2  0
  9 12  1  0
 11 14  1  0
 12 20  1  0
 14 15  1  0
 14 16  1  0
 15 19  1  0
 16 17  1  0
 20 21  2  0
 20 22  1  0
 21 23  1  0
 21 28  1  0
 22 24  2  0
 23 25  2  0
 23 27  1  0
 24 25  1  0
 24 26  1  0
 28 29  2  0
 28 30  1  0
M  END

$$$$

     RDKit          3D

 28 30  0  0  0  0  0  0  0  0999 V2000
    0.0000    0.0000    0.0000 C   0  0  0  0  0  0  0  0  0  0  0  0
    0.0000    0.0000    1.5105 C   0  0  0  0  0  0  0  0  0  0  0  0
    1.4584    0.0000    2.0218 C   0  0  0  0  0  0  0  0  0  0  0  0
    2.2636    1.2050    1.4355 C   0  0  0  0  0  0  0  0  0  0  0  0
    1.8004    1.7203    0.0934 C   0  0  0  0  0  0  0  0  0  0  0  0
    1.3076    0.4919   -0.7044 C   0  0  0  0  0  0  0  0  0  0  0  0
    2.3649   -0.4877   -0.7689 O   0  0  0  0  0  0  0  0  0  0  0  0
    0.9536    0.9439   -2.1488 C   0  0  0  0  0  0  0  0  0  0  0  0
    0.1829   -0.1529   -2.8820 C   0  0  0  0  0  0  0  0  0  0  0  0
    0.1640    2.2412   -2.1872 C   0  0  0  0  0  0  0  0  0  0  0  0
   -1.1959    2.2129   -2.3543 C   0  0  0  0  0  0  0  0  0  0  0  0
    0.9179    3.4642   -2.0539 C   0  0  0  0  0  0  0  0  0  0  0  0
   -1.9550    3.3538   -2.3461 N   0  0  0  0  0  0  0  0  0  0  0  0
    0.0164    4.5381   -2.0579 N   0  0  0  0  0  0  0  0  0  0  0  0
    2.1038    3.7142   -1.9666 O   0  0  0  0  0  0  0  0  0  0  0  0
   -1.3559    4.6083   -2.1635 C   0  0  0  0  0  0  0  0  0  0  0  0
   -2.0695    5.5908   -2.1193 O   0  0  0  0  0  0  0  0  0  0  0  0
    2.7107   -1.4046    0.1103 C   0  0  0  0  0  0  0  0  0  0  0  0
    2.0718   -1.6361    1.1261 O   0  0  0  0  0  0  0  0  0  0  0  0
    2.1392    2.2938    2.3230 O   0  0  0  0  0  0  0  0  0  0  0  0
   -1.8796    1.0781   -2.4884 N   0  0  0  0  0  0  0  0  0  0  0  0
    0.6431    5.8155   -1.8749 C   0  0  0  0  0  0  0  0  0  0  0  0
    3.9865   -2.1237   -0.2595 C   0  0  0  0  0  0  0  0  0  0  0  0
   -3.4010    3.3715   -2.4667 C   0  0  0  0  0  0  0  0  0  0  0  0
    5.1001   -1.5157    0.6074 C   0  0  0  0  0  0  0  0  0  0  0  0
   -0.0151    6.8503   -1.0229 C   0  0  0  0  0  0  0  0  0  0  0  0
    3.8899   -3.6400   -0.0988 C   0  0  0  0  0  0  0  0  0  0  0  0
    1.2542    6.1637   -0.5767 C   0  0  0  0  0  0  0  0  0  0  0  0
  1  2  1  0
  1  6  1  0
  2  3  1  0
  3  4  1  0
  4  5  1  0
  4 20  1  0
  5  6  1  0
  6  7  1  0
  6  8  1  0
  7 18  1  0
  8  9  1  0
  8 10  1  0
 10 11  2  0
 10 12  1  0
 11 13  1  0
 11 21  1  0
 12 14  1  0
 12 15  2  0
 13 16  1  0
 13 24  1  0
 14 16  1  0
 14 22  1  0
 16 17  2  0
 18 19  2  0
 18 23  1  0
 22 26  1  0
 22 28  1  0
 23 25  1  0
 23 27  1  0
 26 28  1  0
M  END

$$$$

     RDKit          3D

 23 25  0  0  0  0  0  0  0  0999 V2000
    0.0000    0.0000    0.0000 C   0  0  0  0  0  0  0  0  0  0  0  0
    0.0000    0.0000    1.5191 C   0  0  0  0  0  0  0  0  0  0  0  0
    1.4009    0.0000    2.0363 C   0  0  0  0  0  0  0  0  0  0  0  0
    2.1372    1.2285    1.5299 C   0  0  0  0  0  0  0  0  0  0  0  0
    1.7707    1.7694    0.1872 C   0  0  0  0  0  0  0  0  0  0  0  0
    1.2189    0.7306   -0.6514 C   0  0  0  0  0  0  0  0  0  0  0  0
    2.4130    0.0568    0.9048 C   0  0  0  0  0  0  0  0  0  0  0  0
    2.6897   -1.3053    0.3359 C   0  0  0  0  0  0  0  0  0  0  0  0
    3.3229   -1.6280   -0.8266 C   0  0  0  0  0  0  0  0  0  0  0  0
    2.2810   -2.7080    1.2494 S   0  0  0  0  0  0  0  0  0  0  0  0
    3.4654   -3.0149   -1.0382 C   0  0  0  0  0  0  0  0  0  0  0  0
    2.9301   -3.6983    0.0247 C   0  0  0  0  0  0  0  0  0  0  0  0
   -0.1365   -1.3855   -0.5632 C   0  0  0  0  0  0  0  0  0  0  0  0
   -0.6369   -2.3218   -0.0157 O   0  0  0  0  0  0  0  0  0  0  0  0
    0.4050   -1.3855   -1.8051 O   0  0  0  0  0  0  0  0  0  0  0  0
    0.6531    1.5647   -1.7763 C   0  0  0  0  0  0  0  0  0  0  0  0
    0.6424    1.1972   -2.9418 O   0  0  0  0  0  0  0  0  0  0  0  0
    0.0841    2.6571   -1.3556 O   0  0  0  0  0  0  0  0  0  0  0  0
   -0.5385    3.5049   -2.3190 C   0  0  0  0  0  0  0  0  0  0  0  0
    0.2104   -2.5955   -2.5189 C   0  0  0  0  0  0  0  0  0  0  0  0
   -1.2931   -2.7838   -2.8232 C   0  0  0  0  0  0  0  0  0  0  0  0
   -1.8700   -1.4638   -3.1825 N   0  0  0  0  0  0  0  0  0  0  0  0
   -1.4992   -3.7847   -3.9473 C   0  0  0  0  0  0  0  0  0  0  0  0
  1  2  1  0
  1  6  1  0
  1 13  1  0
  2  3  1  0
  3  4  1  0
  3  7  1  0
  4  5  1  0
  4  7  2  0
  5  6  1  0
  6 16  1  0
  7  8  1  0
  8  9  2  0
  8 10  1  0
  9 11  1  0
 10 12  1  0
 11 12  2  0
 13 14  2  0
 13 15  1  0
 15 20  1  0
 16 17  2  0
 16 18  1  0
 18 19  1  0
 20 21  1  0
 21 22  1  0
 21 23  1  0
M  END

$$$$

     RDKit          3D

 30 33  0  0  0  0  0  0  0  0999 V2000
    0.0000    0.0000    0.0000 C   0  0  0  0  0  0  0  0  0  0  0  0
    0.0000    0.0000    1.5813 C   0  0  0  0  0  0  0  0  0  0  0  0
    1.4009    0.0000    2.0984 C   0  0  0  0  0  0  0  0  0  0  0  0
    1.2279    0.6563   -0.5632 C   0  0  0  0  0  0  0  0  0  0  0  0
    1.8333    1.7890    0.2644 C   0  0  0  0  0  0  0  0  0  0  0  0
    2.2830    1.2424    1.6382 C   0  0  0  0  0  0  0  0  0  0  0  0
    3.7254    0.8084    1.5256 C   0  0  0  0  0  0  0  0  0  0  0  0
   -0.6850   -1.2815    2.0244 C   0  0  0  0  0  0  0  0  0  0  0  0
   -0.1791   -2.3512    1.7188 O   0  0  0  0  0  0  0  0  0  0  0  0
   -1.9619   -1.2188    2.7625 C   0  0  0  0  0  0  0  0  0  0  0  0
   -2.2009   -0.3237    3.7936 C   0  0  0  0  0  0  0  0  0  0  0  0
   -3.0166   -2.0932    2.3956 C   0  0  0  0  0  0  0  0  0  0  0  0
   -3.4338   -0.2688    4.4247 C   0  0  0  0  0  0  0  0  0  0  0  0
   -4.2424   -2.0371    3.0230 C   0  0  0  0  0  0  0  0  0  0  0  0
   -4.4825   -1.1080    4.0512 C   0  0  0  0  0  0  0  0  0  0  0  0
   -1.2654    0.5985   -0.4949 C   0  0  0  0  0  0  0  0  0  0  0  0
   -1.4481    1.8300   -0.8745 N   0  0  0  0  0  0  0  0  0  0  0  0
   -2.5335   -0.0793   -0.6152 C   0  0  0  0  0  0  0  0  0  0  0  0
   -2.7455    1.9371   -1.1893 O   0  0  0  0  0  0  0  0  0  0  0  0
   -3.4053    0.7612   -1.0278 N   0  0  0  0  0  0  0  0  0  0  0  0
   -5.7333   -1.1118    4.5511 O   0  0  0  0  0  0  0  0  0  0  0  0
    2.2591    2.2671    2.7476 N   0  0  0  0  0  0  0  0  0  0  0  0
    0.8765    2.7569    2.9776 C   0  0  0  0  0  0  0  0  0  0  0  0
    2.7310    2.5398   -0.7178 C   0  0  0  0  0  0  0  0  0  0  0  0
   -6.0252   -0.3947    5.7105 C   0  0  0  0  0  0  0  0  0  0  0  0
   -7.2275    0.3412    5.6714 C   0  0  0  0  0  0  0  0  0  0  0  0
   -5.2587   -0.4592    6.8541 C   0  0  0  0  0  0  0  0  0  0  0  0
   -7.5822    1.0267    6.8133 C   0  0  0  0  0  0  0  0  0  0  0  0
   -5.6207    0.2426    8.0127 C   0  0  0  0  0  0  0  0  0  0  0  0
   -6.8395    0.9668    7.9916 C   0  0  0  0  0  0  0  0  0  0  0  0
  1  2  1  0
  1  4  1  0
  1 16  1  0
  2  3  1  0
  2  8  1  0
  3  6  1  0
  4  5  1  0
  5  6  1  0
  5 24  1  0
  6  7  1  0
  6 22  1  0
  8  9  2  0
  8 10  1  0
 10 11  2  0
 10 12  1  0
 11 13  1  0
 12 14  2  0
 13 15  2  0
 14 15  1  0
 15 21  1  0
 16 17  2  0
 16 18  1  0
 17 19  1  0
 18 20  2  0
 19 20  1  0
 21 25  1  0
 22 23  1  0
 25 26  2  0
 25 27  1  0
 26 28  1  0
 27 29  2  0
 28 30  2  0
 29 30  1  0
M  END

$$$$

     RDKit          3D

 10 10  0  0  0  0  0  0  0  0999 V2000
    0.0000    0.0000    0.0000 C   0  0  0  0  0  0  0  0  0  0  0  0
    0.0000    0.0000    1.5279 C   0  0  0  0  0  0  0  0  0  0  0  0
    1.4055    0.0000    2.1270 C   0  0  0  0  0  0  0  0  0  0  0  0
    0.7348   -1.2259   -0.6551 C   0  0  0  0  0  0  0  0  0  0  0  0
    2.4699   -0.6380    1.2358 C   0  0  0  0  0  0  0  0  0  0  0  0
    1.8180   -1.6814    0.3298 C   0  0  0  0  0  0  0  0  0  0  0  0
    2.0489   -0.8273   -1.0097 O   0  0  0  0  0  0  0  0  0  0  0  0
   -1.3536    0.2692   -0.4208 O   0  0  0  0  0  0  0  0  0  0  0  0
    0.4974    1.2009   -0.5258 O   0  0  0  0  0  0  0  0  0  0  0  0
    2.8433   -2.3214   -0.3651 O   0  0  0  0  0  0  0  0  0  0  0  0
  1  2  1  0
  1  4  1  0
  1  8  1  0
  1  9  1  0
  2  3  1  0
  3  5  1  0
  4  6  1  0
  4  7  1  0
  5  6  1  0
  6 10  1  0
M  END

$$$$

     RDKit          3D

 30 32  0  0  0  0  0  0  0  0999 V2000
    0.0000    0.0000    0.0000 C   0  0  0  0  0  0  0  0  0  0  0  0
    0.0000    0.0000    1.4847 C   0  0  0  0  0  0  0  0  0  0  0  0
    1.4115    0.0000    2.1141 C   0  0  0  0  0  0  0  0  0  0  0  0
    1.1982    0.7181   -0.6403 C   0  0  0  0  0  0  0  0  0  0  0  0
    2.4089   -0.6664    1.1537 C   0  0  0  0  0  0  0  0  0  0  0  0
    2.5733    0.0678   -0.1764 C   0  0  0  0  0  0  0  0  0  0  0  0
    1.0562    2.1599   -0.1281 C   0  0  0  0  0  0  0  0  0  0  0  0
    1.1255    0.7363   -2.1062 N   0  0  0  0  0  0  0  0  0  0  0  0
    2.1652    1.0912   -2.8723 C   0  0  0  0  0  0  0  0  0  0  0  0
    3.1265    1.7409   -2.5610 O   0  0  0  0  0  0  0  0  0  0  0  0
    2.0527    0.6383   -4.3643 C   0  0  0  0  0  0  0  0  0  0  0  0
    1.8188    1.3427    2.4130 O   0  0  0  0  0  0  0  0  0  0  0  0
    1.3524   -0.7516    3.4430 C   0  0  0  0  0  0  0  0  0  0  0  0
    0.7720    1.0389   -4.8717 N   0  0  0  0  0  0  0  0  0  0  0  0
    0.1097   -0.0794   -2.7454 C   0  0  0  0  0  0  0  0  0  0  0  0
    0.5493   -0.2265   -4.2012 C   0  0  0  0  0  0  0  0  0  0  0  0
    1.4796    1.8679    3.5802 C   0  0  0  0  0  0  0  0  0  0  0  0
    0.8442    1.2860    4.4173 O   0  0  0  0  0  0  0  0  0  0  0  0
    2.0605    3.2743    3.7182 C   0  0  0  0  0  0  0  0  0  0  0  0
    2.1919   -0.8651   -4.3215 C   0  0  0  0  0  0  0  0  0  0  0  0
    1.3669   -1.6328   -3.8671 O   0  0  0  0  0  0  0  0  0  0  0  0
    3.4254   -0.3701   -1.3779 C   0  0  0  0  0  0  0  0  0  0  0  0
    3.5404    3.2199    3.6113 C   0  0  0  0  0  0  0  0  0  0  0  0
    4.4372    2.9978    4.6128 C   0  0  0  0  0  0  0  0  0  0  0  0
    4.3578    3.3426    2.0994 S   0  0  0  0  0  0  0  0  0  0  0  0
    5.7640    2.9557    4.1613 C   0  0  0  0  0  0  0  0  0  0  0  0
    5.9150    3.1292    2.8295 C   0  0  0  0  0  0  0  0  0  0  0  0
    7.4939    3.0566    1.8160 Br  0  0  0  0  0  0  0  0  0  0  0  0
    0.4442    2.4183   -5.1397 C   0  0  0  0  0  0  0  0  0  0  0  0
   -1.0426    2.4350   -5.4911 C   0  0  0  0  0  0  0  0  0  0  0  0
  1  2  1  0
  1  4  1  0
  2  3  1  0
  3  5  1  0
  3 12  1  0
  3 13  1  0
  4  6  1  0
  4  7  1  0
  4  8  1  0
  5  6  1  0
  6 22  1  0
  8  9  1  0
  8 15  1  0
  9 10  2  0
  9 11  1  0
 11 14  1  0
 11 20  1  0
 12 17  1  0
 14 16  1  0
 14 29  1  0
 15 16  1  0
 17 18  2  0
 17 19  1  0
 19 23  1  0
 20 21  2  0
 23 24  2  0
 23 25  1  0
 24 26  1  0
 25 27  1  0
 26 27  2  0
 27 28  1  0
 29 30  1  0
M  END

$$$$

     RDKit          3D

 13 12  0  0  0  0  0  0  0  0999 V2000
    0.0000    0.0000    0.0000 C   0  0  0  0  0  0  0  0  0  0  0  0
    0.0000    0.0000    1.6365 C   0  0  0  0  0  0  0  0  0  0  0  0
    1.4082    0.0000    2.1829 C   0  0  0  0  0  0  0  0  0  0  0  0
    1.1314    0.7560   -0.5504 C   0  0  0  0  0  0  0  0  0  0  0  0
    2.3886   -0.6551    1.2388 C   0  0  0  0  0  0  0  0  0  0  0  0
    2.4997    0.1088   -0.1596 C   0  0  0  0  0  0  0  0  0  0  0  0
   -0.8613   -1.1613    2.0099 N   0  0  0  0  0  0  0  0  0  0  0  0
    1.1999    2.1513   -0.1897 N   0  0  0  0  0  0  0  0  0  0  0  0
    3.7153    0.9785   -0.5162 C   0  0  0  0  0  0  0  0  0  0  0  0
    0.0641   -1.3053   -0.4621 O   0  0  0  0  0  0  0  0  0  0  0  0
    1.4239    2.1620    1.2694 C   0  0  0  0  0  0  0  0  0  0  0  0
    0.0640    2.9225   -0.6594 C   0  0  0  0  0  0  0  0  0  0  0  0
    2.6651   -1.2504   -0.8375 C   0  0  0  0  0  0  0  0  0  0  0  0
  1  4  1  0
  1 10  1  0
  2  3  1  0
  2  7  1  0
  3  5  1  0
  4  6  1  0
  4  8  1  0
  5  6  1  0
  6  9  1  0
  6 13  1  0
  8 11  1  0
  8 12  1  0
M  END

$$$$

     RDKit          3D

 30 31  0  0  0  0  0  0  0  0999 V2000
    0.0000    0.0000    0.0000 C   0  0  0  0  0  0  0  0  0  0  0  0
    0.0000    0.0000    1.6272 C   0  0  0  0  0  0  0  0  0  0  0  0
    1.3852    0.0000    2.1128 C   0  0  0  0  0  0  0  0  0  0  0  0
    2.1971    1.2151    1.6672 C   0  0  0  0  0  0  0  0  0  0  0  0
    1.2139    0.6488   -0.5568 C   0  0  0  0  0  0  0  0  0  0  0  0
    1.7261    1.7233    0.2857 C   0  0  0  0  0  0  0  0  0  0  0  0
   -0.0678   -1.3795   -0.3566 O   0  0  0  0  0  0  0  0  0  0  0  0
   -0.7552   -0.9202    2.2411 O   0  0  0  0  0  0  0  0  0  0  0  0
    2.1298    2.1063    2.7372 O   0  0  0  0  0  0  0  0  0  0  0  0
    2.2638    0.0576    3.3401 C   0  0  0  0  0  0  0  0  0  0  0  0
    2.8985   -1.3051    3.6584 C   0  0  0  0  0  0  0  0  0  0  0  0
   -1.1570    0.8581   -0.5093 C   0  0  0  0  0  0  0  0  0  0  0  0
   -2.2716    0.5789   -0.1589 O   0  0  0  0  0  0  0  0  0  0  0  0
    1.5293    0.4240    4.5267 N   0  0  0  0  0  0  0  0  0  0  0  0
   -0.7478    1.8460   -1.2773 O   0  0  0  0  0  0  0  0  0  0  0  0
   -1.7251    2.7486   -1.7691 C   0  0  0  0  0  0  0  0  0  0  0  0
   -0.3160    1.2617    2.3781 C   0  0  0  0  0  0  0  0  0  0  0  0
    0.8255   -0.4548    5.2802 C   0  0  0  0  0  0  0  0  0  0  0  0
    0.1955   -0.1034    6.2322 O   0  0  0  0  0  0  0  0  0  0  0  0
    4.0141   -1.3561    4.7140 C   0  0  0  0  0  0  0  0  0  0  0  0
    5.1491   -0.4226    4.2958 C   0  0  0  0  0  0  0  0  0  0  0  0
    4.6369    1.0080    4.0674 C   0  0  0  0  0  0  0  0  0  0  0  0
    6.1883   -0.3973    5.2726 O   0  0  0  0  0  0  0  0  0  0  0  0
    6.9772   -1.5742    5.4381 C   0  0  0  0  0  0  0  0  0  0  0  0
    6.2673   -2.5816    6.3114 C   0  0  0  0  0  0  0  0  0  0  0  0
    6.0640   -3.8868    5.9181 C   0  0  0  0  0  0  0  0  0  0  0  0
    5.7160   -2.1481    7.5162 C   0  0  0  0  0  0  0  0  0  0  0  0
    5.2863   -4.7446    6.7089 C   0  0  0  0  0  0  0  0  0  0  0  0
    4.9494   -2.9977    8.2844 C   0  0  0  0  0  0  0  0  0  0  0  0
    4.7679   -4.2932    7.9218 C   0  0  0  0  0  0  0  0  0  0  0  0
  1  2  1  0
  1  5  1  0
  1  7  1  0
  1 12  1  0
  2  3  1  0
  2  8  1  0
  2 17  1  0
  3  4  1  0
  3 10  1  0
  4  6  1  0
  4  9  1  0
  5  6  1  0
 10 11  1  0
 10 14  1  0
 11 20  1  0
 12 13  2  0
 12 15  1  0
 14 18  1  0
 15 16  1  0
 18 19  2  0
 20 21  1  0
 21 22  1  0
 21 23  1  0
 23 24  1  0
 24 25  1  0
 25 26  2  0
 25 27  1  0
 26 28  1  0
 27 29  2  0
 28 30  2  0
 29 30  1  0
M  END

$$$$

     RDKit          3D

 28 30  0  0  0  0  0  0  0  0999 V2000
    0.0000    0.0000    0.0000 C   0  0  0  0  0  0  0  0  0  0  0  0
    0.0000    0.0000    1.4933 C   0  0  0  0  0  0  0  0  0  0  0  0
    1.4646    0.0000    2.0894 C   0  0  0  0  0  0  0  0  0  0  0  0
    1.2628    0.5973   -0.6403 C   0  0  0  0  0  0  0  0  0  0  0  0
    2.4879   -0.1371   -0.2047 C   0  0  0  0  0  0  0  0  0  0  0  0
    2.3919   -0.7610    1.1290 C   0  0  0  0  0  0  0  0  0  0  0  0
   -0.1780   -1.8068   -0.3867 S   0  0  0  0  0  0  0  0  0  0  0  0
    1.9970    1.2852    2.2646 O   0  0  0  0  0  0  0  0  0  0  0  0
   -1.2176    0.4357   -0.7466 C   0  0  0  0  0  0  0  0  0  0  0  0
   -2.3667    0.8468   -0.2529 C   0  0  0  0  0  0  0  0  0  0  0  0
    0.5926   -2.1559   -1.5658 O   0  0  0  0  0  0  0  0  0  0  0  0
   -0.0188   -2.0727   -2.7202 C   0  0  0  0  0  0  0  0  0  0  0  0
   -1.1731   -1.7905   -2.9386 O   0  0  0  0  0  0  0  0  0  0  0  0
    0.9201   -2.4096   -3.8775 C   0  0  0  0  0  0  0  0  0  0  0  0
    1.2916   -0.7206    3.3957 C   0  0  0  0  0  0  0  0  0  0  0  0
    0.0240   -0.7962    3.7707 C   0  0  0  0  0  0  0  0  0  0  0  0
    2.6695   -2.3816   -3.4384 S   0  0  0  0  0  0  0  0  0  0  0  0
    2.7107   -0.7694   -2.8316 C   0  0  0  0  0  0  0  0  0  0  0  0
    1.8311    0.1823   -2.9528 N   0  0  0  0  0  0  0  0  0  0  0  0
    3.7635   -0.3258   -2.1326 O   0  0  0  0  0  0  0  0  0  0  0  0
    2.3164    1.2266   -2.2538 N   0  0  0  0  0  0  0  0  0  0  0  0
    3.4008    0.9506   -1.7902 C   0  0  0  0  0  0  0  0  0  0  0  0
    4.2308    1.7392   -0.9948 C   0  0  0  0  0  0  0  0  0  0  0  0
    3.9227    3.0816   -0.6565 C   0  0  0  0  0  0  0  0  0  0  0  0
    4.8947    3.5482    0.1638 C   0  0  0  0  0  0  0  0  0  0  0  0
    6.2223    2.4566    0.5084 S   0  0  0  0  0  0  0  0  0  0  0  0
    5.4038    1.3129   -0.4354 C   0  0  0  0  0  0  0  0  0  0  0  0
    4.9257    4.8909    0.7968 C   0  0  0  0  0  0  0  0  0  0  0  0
  1  2  1  0
  1  4  1  0
  1  7  1  0
  1  9  1  0
  2  3  1  0
  3  6  1  0
  3  8  1  0
  3 15  1  0
  4  5  1  0
  5  6  1  0
  7 11  1  0
  9 10  2  0
 11 12  1  0
 12 13  2  0
 12 14  1  0
 14 17  1  0
 15 16  2  0
 17 18  1  0
 18 19  2  0
 18 20  1  0
 19 21  1  0
 20 22  1  0
 21 22  2  0
 22 23  1  0
 23 24  1  0
 23 27  2  0
 24 25  2  0
 25 26  1  0
 25 28  1  0
 26 27  1  0
M  END

$$$$

     RDKit          3D

 33 35  0  0  0  0  0  0  0  0999 V2000
    0.0000    0.0000    0.0000 C   0  0  0  0  0  0  0  0  0  0  0  0
    0.0000    0.0000    1.5633 C   0  0  0  0  0  0  0  0  0  0  0  0
    1.3426    0.0000    2.1356 C   0  0  0  0  0  0  0  0  0  0  0  0
    0.6526   -1.2208   -0.5600 C   0  0  0  0  0  0  0  0  0  0  0  0
    1.7170   -1.8588    0.3313 C   0  0  0  0  0  0  0  0  0  0  0  0
    2.3652   -0.6129    1.2794 C   0  0  0  0  0  0  0  0  0  0  0  0
    3.5542   -0.3728    1.4776 O   0  0  0  0  0  0  0  0  0  0  0  0
   -1.4305    0.0703   -0.5064 C   0  0  0  0  0  0  0  0  0  0  0  0
   -2.0915    1.3068   -0.5064 C   0  0  0  0  0  0  0  0  0  0  0  0
   -2.1083   -1.0605   -0.9084 C   0  0  0  0  0  0  0  0  0  0  0  0
   -3.3903    1.4093   -0.9055 C   0  0  0  0  0  0  0  0  0  0  0  0
   -3.4516   -0.9515   -1.3234 C   0  0  0  0  0  0  0  0  0  0  0  0
   -4.1201    0.2904   -1.3314 C   0  0  0  0  0  0  0  0  0  0  0  0
   -4.2054   -2.0933   -1.6972 C   0  0  0  0  0  0  0  0  0  0  0  0
   -5.4869    0.3383   -1.7072 C   0  0  0  0  0  0  0  0  0  0  0  0
   -5.5070   -1.9458   -2.0428 C   0  0  0  0  0  0  0  0  0  0  0  0
   -6.1498   -0.7792   -2.1667 C   0  0  0  0  0  0  0  0  0  0  0  0
    2.8878   -2.4469   -0.4546 C   0  0  0  0  0  0  0  0  0  0  0  0
   -7.4319   -0.7701   -2.5797 O   0  0  0  0  0  0  0  0  0  0  0  0
    1.5883    0.5933    3.2677 N   0  0  0  0  0  0  0  0  0  0  0  0
   -6.1329    1.5105   -1.6585 O   0  0  0  0  0  0  0  0  0  0  0  0
    0.6057    1.1333   -0.5198 O   0  0  0  0  0  0  0  0  0  0  0  0
    1.1892   -3.0039    1.1941 C   0  0  0  0  0  0  0  0  0  0  0  0
    0.7288    1.2423    4.0249 N   0  0  0  0  0  0  0  0  0  0  0  0
    1.1977    1.8607    5.1830 C   0  0  0  0  0  0  0  0  0  0  0  0
    2.5158    1.7549    5.5717 C   0  0  0  0  0  0  0  0  0  0  0  0
    0.2388    2.5938    5.9431 C   0  0  0  0  0  0  0  0  0  0  0  0
    2.9292    2.3529    6.7706 C   0  0  0  0  0  0  0  0  0  0  0  0
    0.6574    3.1981    7.1560 C   0  0  0  0  0  0  0  0  0  0  0  0
   -1.1284    2.7502    5.6351 C   0  0  0  0  0  0  0  0  0  0  0  0
    2.0853    3.0498    7.5952 C   0  0  0  0  0  0  0  0  0  0  0  0
   -0.3316    3.8652    7.8928 C   0  0  0  0  0  0  0  0  0  0  0  0
   -1.5749    2.1278    4.4798 C   0  0  0  0  0  0  0  0  0  0  0  0
  1  2  1  0
  1  4  1  0
  1  8  1  0
  1 22  1  0
  2  3  1  0
  3  6  1  0
  3 20  2  3
  4  5  1  0
  5 18  1  0
  5 23  1  0
  6  7  2  0
  8  9  2  0
  8 10  1  0
  9 11  1  0
 10 12  2  0
 11 13  2  0
 12 13  1  0
 12 14  1  0
 13 15  1  0
 14 16  2  0
 15 17  2  0
 15 21  1  0
 16 17  1  0
 17 19  1  0
 20 24  1  0
 24 25  1  0
 25 26  2  0
 25 27  1  0
 26 28  1  0
 27 29  1  0
 27 30  1  0
 28 31  2  0
 29 31  1  0
 29 32  1  0
 30 33  2  0
M  END

$$$$

     RDKit          3D

 30 31  0  0  0  0  0  0  0  0999 V2000
    0.0000    0.0000    0.0000 C   0  0  0  0  0  0  0  0  0  0  0  0
    0.0000    0.0000    1.4678 C   0  0  0  0  0  0  0  0  0  0  0  0
    1.3930    0.0000    2.1166 C   0  0  0  0  0  0  0  0  0  0  0  0
    1.2635    0.6754   -0.5795 C   0  0  0  0  0  0  0  0  0  0  0  0
    2.2003    1.2082    1.6735 C   0  0  0  0  0  0  0  0  0  0  0  0
    1.7122    1.7585    0.3591 C   0  0  0  0  0  0  0  0  0  0  0  0
    0.8446    2.8486    0.5168 C   0  0  0  0  0  0  0  0  0  0  0  0
    0.8708    3.6702    1.4306 O   0  0  0  0  0  0  0  0  0  0  0  0
    3.5324    1.1163    2.4339 C   0  0  0  0  0  0  0  0  0  0  0  0
   -0.1379   -1.4004   -0.1773 O   0  0  0  0  0  0  0  0  0  0  0  0
   -1.0902    0.5156   -0.8661 C   0  0  0  0  0  0  0  0  0  0  0  0
   -0.3370    3.1066   -0.4596 C   0  0  0  0  0  0  0  0  0  0  0  0
    0.5579    3.4190   -1.6580 C   0  0  0  0  0  0  0  0  0  0  0  0
   -1.2448    4.1046    0.2196 N   0  0  0  0  0  0  0  0  0  0  0  0
    1.4533    0.2253    3.6266 C   0  0  0  0  0  0  0  0  0  0  0  0
    1.6124   -1.2312    4.2214 C   0  0  0  0  0  0  0  0  0  0  0  0
   -2.4082    3.4947    0.9652 C   0  0  0  0  0  0  0  0  0  0  0  0
   -1.8886    2.6943    2.1361 C   0  0  0  0  0  0  0  0  0  0  0  0
   -1.7383    1.3102    2.0622 C   0  0  0  0  0  0  0  0  0  0  0  0
   -1.4233    3.3234    3.2611 C   0  0  0  0  0  0  0  0  0  0  0  0
   -1.1565    0.5626    3.0416 C   0  0  0  0  0  0  0  0  0  0  0  0
   -0.8256    2.6492    4.2936 C   0  0  0  0  0  0  0  0  0  0  0  0
   -0.6793    1.1970    4.1877 C   0  0  0  0  0  0  0  0  0  0  0  0
    2.7779   -1.3117    4.8605 O   0  0  0  0  0  0  0  0  0  0  0  0
    0.0002    0.3589    5.0071 O   0  0  0  0  0  0  0  0  0  0  0  0
    0.1186    0.7103    6.3510 C   0  0  0  0  0  0  0  0  0  0  0  0
   -0.6849    1.2815    7.0254 O   0  0  0  0  0  0  0  0  0  0  0  0
   -0.0624    3.6966    5.9681 I   0  0  0  0  0  0  0  0  0  0  0  0
   -1.6906    5.2486   -0.6002 C   0  0  0  0  0  0  0  0  0  0  0  0
    1.2676    0.2123    6.8039 N   0  0  0  0  0  0  0  0  0  0  0  0
  1  2  1  0
  1  4  1  0
  1 10  1  0
  1 11  1  0
  2  3  1  0
  3  5  1  0
  3 15  1  0
  4  6  1  0
  5  6  1  0
  5  9  1  0
  6  7  1  0
  7  8  2  0
  7 12  1  0
 12 13  1  0
 12 14  1  0
 14 17  1  0
 14 29  1  0
 15 16  1  0
 16 24  1  0
 17 18  1  0
 18 19  2  0
 18 20  1  0
 19 21  1  0
 20 22  2  0
 21 23  2  0
 22 23  1  0
 22 28  1  0
 23 25  1  0
 25 26  1  0
 26 27  2  0
 26 30  1  0
M  END

$$$$

     RDKit          3D

 31 33  0  0  0  0  0  0  0  0999 V2000
    0.0000    0.0000    0.0000 C   0  0  0  0  0  0  0  0  0  0  0  0
    0.0000    0.0000    1.5633 C   0  0  0  0  0  0  0  0  0  0  0  0
    1.3253    0.0000    2.1542 C   0  0  0  0  0  0  0  0  0  0  0  0
    1.2420    0.6639   -0.5697 C   0  0  0  0  0  0  0  0  0  0  0  0
    2.4565   -0.0641   -0.0691 C   0  0  0  0  0  0  0  0  0  0  0  0
    2.3336   -0.7478    1.2527 C   0  0  0  0  0  0  0  0  0  0  0  0
    3.6942    0.1327   -0.9121 C   0  0  0  0  0  0  0  0  0  0  0  0
   -1.1772    0.6292   -0.6883 N   0  0  0  0  0  0  0  0  0  0  0  0
   -0.7182   -1.1983    1.9240 O   0  0  0  0  0  0  0  0  0  0  0  0
   -2.4768    0.0146   -0.3172 C   0  0  0  0  0  0  0  0  0  0  0  0
   -1.1553    0.5572   -2.1627 C   0  0  0  0  0  0  0  0  0  0  0  0
   -0.7780   -1.6014    3.2079 C   0  0  0  0  0  0  0  0  0  0  0  0
   -0.1553   -1.0450    4.0810 O   0  0  0  0  0  0  0  0  0  0  0  0
   -3.6052    0.5888   -1.1408 C   0  0  0  0  0  0  0  0  0  0  0  0
   -3.3674    1.3398   -2.2621 C   0  0  0  0  0  0  0  0  0  0  0  0
   -4.9133    0.2787   -0.7424 C   0  0  0  0  0  0  0  0  0  0  0  0
   -4.4479    1.8096   -3.0223 C   0  0  0  0  0  0  0  0  0  0  0  0
   -5.9861    0.7449   -1.5008 C   0  0  0  0  0  0  0  0  0  0  0  0
   -5.7559    1.5557   -2.7021 C   0  0  0  0  0  0  0  0  0  0  0  0
   -7.2466    0.4583   -1.0458 O   0  0  0  0  0  0  0  0  0  0  0  0
   -1.7017   -2.7835    3.4472 C   0  0  0  0  0  0  0  0  0  0  0  0
   -1.5599   -3.7641    2.2726 C   0  0  0  0  0  0  0  0  0  0  0  0
   -1.3200   -3.5034    4.7397 C   0  0  0  0  0  0  0  0  0  0  0  0
   -3.1139   -2.1588    3.5101 C   0  0  0  0  0  0  0  0  0  0  0  0
   -1.9661    1.6246   -2.7211 C   0  0  0  0  0  0  0  0  0  0  0  0
   -8.2965    0.4586   -1.9873 C   0  0  0  0  0  0  0  0  0  0  0  0
   -6.8371    2.0309   -3.3816 O   0  0  0  0  0  0  0  0  0  0  0  0
   -6.8400    2.1774   -4.7521 C   0  0  0  0  0  0  0  0  0  0  0  0
   -5.9271    1.8532   -5.4391 O   0  0  0  0  0  0  0  0  0  0  0  0
   -3.5096   -1.5003    4.8307 C   0  0  0  0  0  0  0  0  0  0  0  0
   -8.1598    2.7752   -5.1475 C   0  0  0  0  0  0  0  0  0  0  0  0
  1  2  1  0
  1  4  1  0
  1  8  1  0
  2  3  1  0
  2  9  1  0
  3  6  1  0
  4  5  1  0
  5  6  1  0
  5  7  1  0
  8 10  1  0
  8 11  1  0
  9 12  1  0
 10 14  1  0
 11 25  1  0
 12 13  2  0
 12 21  1  0
 14 15  2  0
 14 16  1  0
 15 17  1  0
 15 25  1  0
 16 18  2  0
 17 19  2  0
 18 19  1  0
 18 20  1  0
 19 27  1  0
 20 26  1  0
 21 22  1  0
 21 23  1  0
 21 24  1  0
 24 30  1  0
 27 28  1  0
 28 29  2  0
 28 31  1  0
M  END

$$$$

     RDKit          3D

 14 14  0  0  0  0  0  0  0  0999 V2000
    0.0000    0.0000    0.0000 C   0  0  0  0  0  0  0  0  0  0  0  0
    0.0000    0.0000    1.5366 C   0  0  0  0  0  0  0  0  0  0  0  0
    1.3910    0.0000    2.1028 C   0  0  0  0  0  0  0  0  0  0  0  0
    2.3838   -0.8148    1.2752 C   0  0  0  0  0  0  0  0  0  0  0  0
    2.5450   -0.2105   -0.1575 C   0  0  0  0  0  0  0  0  0  0  0  0
    1.2201    0.5771   -0.6186 C   0  0  0  0  0  0  0  0  0  0  0  0
    1.2201    1.5584   -1.4963 C   0  0  0  0  0  0  0  0  0  0  0  0
    3.7496   -0.8977    1.9745 C   0  0  0  0  0  0  0  0  0  0  0  0
    3.8082   -2.3484    2.4214 C   0  0  0  0  0  0  0  0  0  0  0  0
    2.7243   -2.9889    2.0112 C   0  0  0  0  0  0  0  0  0  0  0  0
    3.7139    0.7983   -0.2241 C   0  0  0  0  0  0  0  0  0  0  0  0
    3.4895    1.9027    0.5967 O   0  0  0  0  0  0  0  0  0  0  0  0
   -1.1511   -0.6899    2.1518 C   0  0  0  0  0  0  0  0  0  0  0  0
   -2.0314   -1.4124    1.3338 O   0  0  0  0  0  0  0  0  0  0  0  0
  1  2  1  0
  1  6  1  0
  2  3  1  0
  2 13  1  0
  3  4  1  0
  4  5  1  0
  4  8  1  0
  5  6  1  0
  5 11  1  0
  6  7  2  0
  8  9  1  0
  9 10  2  0
 11 12  1  0
 13 14  1  0
M  END

$$$$

     RDKit          3D

 22 22  0  0  0  0  0  0  0  0999 V2000
    0.0000    0.0000    0.0000 C   0  0  0  0  0  0  0  0  0  0  0  0
    0.0000    0.0000    1.4763 C   0  0  0  0  0  0  0  0  0  0  0  0
    1.4912    0.0000    2.0548 C   0  0  0  0  0  0  0  0  0  0  0  0
    1.2773    0.6041   -0.6476 C   0  0  0  0  0  0  0  0  0  0  0  0
    2.4079   -0.7523    1.1053 C   0  0  0  0  0  0  0  0  0  0  0  0
    2.5445   -0.1554   -0.3330 C   0  0  0  0  0  0  0  0  0  0  0  0
    3.6023    0.8777    0.2015 C   0  0  0  0  0  0  0  0  0  0  0  0
    3.6546    2.0612   -0.0692 O   0  0  0  0  0  0  0  0  0  0  0  0
    4.4375    0.2289    1.0233 O   0  0  0  0  0  0  0  0  0  0  0  0
    1.0148    0.0490   -2.0562 C   0  0  0  0  0  0  0  0  0  0  0  0
    2.1039   -2.1930    0.8567 C   0  0  0  0  0  0  0  0  0  0  0  0
    2.9167   -2.9791    0.3398 O   0  0  0  0  0  0  0  0  0  0  0  0
   -0.0589   -1.1990   -0.6931 O   0  0  0  0  0  0  0  0  0  0  0  0
    5.5540    0.9413    1.6163 C   0  0  0  0  0  0  0  0  0  0  0  0
    1.7242    0.6863    3.0649 O   0  0  0  0  0  0  0  0  0  0  0  0
    2.6737   -1.5418   -0.9183 C   0  0  0  0  0  0  0  0  0  0  0  0
    6.5202    1.4876    0.5409 C   0  0  0  0  0  0  0  0  0  0  0  0
    0.8918   -2.5541    1.1942 O   0  0  0  0  0  0  0  0  0  0  0  0
    5.0653    2.0367    2.5627 C   0  0  0  0  0  0  0  0  0  0  0  0
    7.2189    0.3461   -0.1778 C   0  0  0  0  0  0  0  0  0  0  0  0
   -0.2734    0.7967   -2.5005 C   0  0  0  0  0  0  0  0  0  0  0  0
   -0.6116    0.7775   -3.9814 C   0  0  0  0  0  0  0  0  0  0  0  0
  1  2  1  0
  1  4  1  0
  1 13  1  0
  2  3  1  0
  3  5  1  0
  3 15  2  0
  4  6  1  0
  4 10  1  0
  5  6  1  0
  5 11  1  0
  6  7  1  0
  6 16  1  0
  7  8  2  0
  7  9  1  0
  9 14  1  0
 10 21  1  0
 11 12  2  0
 11 18  1  0
 14 17  1  0
 14 19  1  0
 17 20  1  0
 21 22  1  0
M  END

$$$$

     RDKit          3D

 24 24  0  0  0  0  0  0  0  0999 V2000
    0.0000    0.0000    0.0000 C   0  0  0  0  0  0  0  0  0  0  0  0
    0.0000    0.0000    1.5105 C   0  0  0  0  0  0  0  0  0  0  0  0
    1.4217    0.0000    2.1165 C   0  0  0  0  0  0  0  0  0  0  0  0
    1.2635    0.6754   -0.5795 C   0  0  0  0  0  0  0  0  0  0  0  0
    2.4077   -0.6588    1.1671 C   0  0  0  0  0  0  0  0  0  0  0  0
    2.5450   -0.0096   -0.1365 C   0  0  0  0  0  0  0  0  0  0  0  0
    1.3625   -0.7516    3.4455 C   0  0  0  0  0  0  0  0  0  0  0  0
    1.2843    0.7438   -1.9798 O   0  0  0  0  0  0  0  0  0  0  0  0
    2.0136   -1.6887    0.3141 O   0  0  0  0  0  0  0  0  0  0  0  0
   -0.1985   -1.3379   -0.4782 O   0  0  0  0  0  0  0  0  0  0  0  0
    1.4773    2.1167   -0.0644 C   0  0  0  0  0  0  0  0  0  0  0  0
    2.4919    2.4374    0.5078 O   0  0  0  0  0  0  0  0  0  0  0  0
    0.5032    2.8878   -0.4267 O   0  0  0  0  0  0  0  0  0  0  0  0
    0.5462    4.3064   -0.0864 C   0  0  0  0  0  0  0  0  0  0  0  0
    0.4895    5.1091   -1.3545 C   0  0  0  0  0  0  0  0  0  0  0  0
    1.4939    5.7653   -1.8779 C   0  0  0  0  0  0  0  0  0  0  0  0
   -0.7625   -1.5057   -1.6559 C   0  0  0  0  0  0  0  0  0  0  0  0
   -1.2830   -0.6532   -2.3233 O   0  0  0  0  0  0  0  0  0  0  0  0
   -0.7549   -2.9781   -2.0954 C   0  0  0  0  0  0  0  0  0  0  0  0
   -0.5576    4.6616    0.9085 C   0  0  0  0  0  0  0  0  0  0  0  0
   -0.4216    6.0685    1.4650 C   0  0  0  0  0  0  0  0  0  0  0  0
   -0.1771   -3.1145   -3.4655 N   0  0  0  0  0  0  0  0  0  0  0  0
    1.1312   -2.4373   -3.5609 C   0  0  0  0  0  0  0  0  0  0  0  0
   -0.0203   -4.5143   -3.8784 C   0  0  0  0  0  0  0  0  0  0  0  0
  1  2  1  0
  1  4  1  0
  1 10  1  0
  2  3  1  0
  3  5  1  0
  3  7  1  0
  4  6  1  0
  4  8  1  0
  4 11  1  0
  5  6  1  0
  5  9  1  0
 10 17  1  0
 11 12  2  0
 11 13  1  0
 13 14  1  0
 14 15  1  0
 14 20  1  0
 15 16  2  0
 17 18  2  0
 17 19  1  0
 19 22  1  0
 20 21  1  0
 22 23  1  0
 22 24  1  0
M  END

$$$$

     RDKit          3D

 25 25  0  0  0  0  0  0  0  0999 V2000
    0.0000    0.0000    0.0000 C   0  0  0  0  0  0  0  0  0  0  0  0
    0.0000    0.0000    1.5543 C   0  0  0  0  0  0  0  0  0  0  0  0
    1.4217    0.0000    2.1604 C   0  0  0  0  0  0  0  0  0  0  0  0
    1.1844    0.7914   -0.5762 C   0  0  0  0  0  0  0  0  0  0  0  0
    2.5671   -0.0373   -0.1600 C   0  0  0  0  0  0  0  0  0  0  0  0
    2.4212   -0.6377    1.1901 C   0  0  0  0  0  0  0  0  0  0  0  0
    3.4884   -0.0754   -0.9515 O   0  0  0  0  0  0  0  0  0  0  0  0
   -0.2050   -1.3818   -0.6403 C   0  0  0  0  0  0  0  0  0  0  0  0
    2.9667   -1.7931    1.6169 C   0  0  0  0  0  0  0  0  0  0  0  0
    3.5037   -2.7704    0.7144 N   0  0  0  0  0  0  0  0  0  0  0  0
    4.9706   -2.9362    0.7205 C   0  0  0  0  0  0  0  0  0  0  0  0
    2.8887   -2.0351    3.0625 C   0  0  0  0  0  0  0  0  0  0  0  0
    3.6816   -2.9070    3.6493 C   0  0  0  0  0  0  0  0  0  0  0  0
    5.4277   -2.8132    2.1825 C   0  0  0  0  0  0  0  0  0  0  0  0
    1.7840   -0.9980    3.8829 S   0  0  0  0  0  0  0  0  0  0  0  0
    2.7490   -4.0273    0.7860 C   0  0  0  0  0  0  0  0  0  0  0  0
    5.3294   -4.2072   -0.0124 C   0  0  0  0  0  0  0  0  0  0  0  0
    4.4423   -5.2918    0.0408 C   0  0  0  0  0  0  0  0  0  0  0  0
    6.4897   -4.3074   -0.7494 C   0  0  0  0  0  0  0  0  0  0  0  0
    4.7535   -6.5016   -0.5780 C   0  0  0  0  0  0  0  0  0  0  0  0
    6.8044   -5.5241   -1.3712 C   0  0  0  0  0  0  0  0  0  0  0  0
    5.9763   -6.6412   -1.1985 C   0  0  0  0  0  0  0  0  0  0  0  0
   -1.2689    0.7605   -0.3820 C   0  0  0  0  0  0  0  0  0  0  0  0
    7.9723   -5.5158   -2.0110 O   0  0  0  0  0  0  0  0  0  0  0  0
    8.4291   -6.7050   -2.6345 C   0  0  0  0  0  0  0  0  0  0  0  0
  1  2  1  0
  1  4  1  0
  1  8  1  0
  1 23  1  0
  2  3  1  0
  3  6  1  0
  5  6  1  0
  5  7  2  0
  6  9  2  3
  9 10  1  0
  9 12  1  0
 10 11  1  0
 10 16  1  0
 11 14  1  0
 11 17  1  0
 12 13  2  0
 12 15  1  0
 17 18  2  0
 17 19  1  0
 18 20  1  0
 19 21  2  0
 20 22  2  0
 21 22  1  0
 21 24  1  0
 24 25  1  0
M  END

$$$$

     RDKit          3D

 23 25  0  0  0  0  0  0  0  0999 V2000
    0.0000    0.0000    0.0000 C   0  0  0  0  0  0  0  0  0  0  0  0
    0.0000    0.0000    1.5018 C   0  0  0  0  0  0  0  0  0  0  0  0
    1.4151    0.0000    2.0778 C   0  0  0  0  0  0  0  0  0  0  0  0
    1.1982    0.7181   -0.6403 C   0  0  0  0  0  0  0  0  0  0  0  0
    2.5407    0.0005   -0.2472 C   0  0  0  0  0  0  0  0  0  0  0  0
    2.4062   -0.7350    1.1916 C   0  0  0  0  0  0  0  0  0  0  0  0
    3.1192   -1.7674    1.6605 C   0  0  0  0  0  0  0  0  0  0  0  0
    4.1909   -2.4255    0.8874 C   0  0  0  0  0  0  0  0  0  0  0  0
    4.7970   -1.8961   -0.0323 O   0  0  0  0  0  0  0  0  0  0  0  0
   -1.2689    0.3178   -0.7552 C   0  0  0  0  0  0  0  0  0  0  0  0
    0.7764    0.5353   -2.0882 C   0  0  0  0  0  0  0  0  0  0  0  0
    1.1883    0.6663   -3.2091 O   0  0  0  0  0  0  0  0  0  0  0  0
    3.5997    1.0489   -0.5846 C   0  0  0  0  0  0  0  0  0  0  0  0
    4.1553    1.7558    0.2017 O   0  0  0  0  0  0  0  0  0  0  0  0
    3.8861    1.1134   -1.8913 O   0  0  0  0  0  0  0  0  0  0  0  0
    4.4602   -3.6314    1.3840 N   0  0  0  0  0  0  0  0  0  0  0  0
    5.5383   -4.4922    0.8352 C   0  0  0  0  0  0  0  0  0  0  0  0
   -0.7634   -1.0950   -0.6927 C   0  0  0  0  0  0  0  0  0  0  0  0
    6.8983   -3.7866    0.9526 C   0  0  0  0  0  0  0  0  0  0  0  0
    5.4764   -5.7092    1.7713 C   0  0  0  0  0  0  0  0  0  0  0  0
   -1.3422   -2.0903    0.0934 O   0  0  0  0  0  0  0  0  0  0  0  0
    5.2092   -4.8800   -0.6148 C   0  0  0  0  0  0  0  0  0  0  0  0
   -0.6376    0.0524   -2.2394 C   0  0  0  0  0  0  0  0  0  0  0  0
  1  2  1  0
  1  4  1  0
  1 10  1  0
  1 18  1  0
  2  3  1  0
  3  6  1  0
  4  5  1  0
  4 11  1  0
  5  6  1  0
  5 13  1  0
  6  7  2  3
  7  8  1  0
  8  9  2  0
  8 16  1  0
 10 18  1  0
 10 23  1  0
 11 12  2  0
 11 23  1  0
 13 14  2  0
 13 15  1  0
 16 17  1  0
 17 19  1  0
 17 20  1  0
 17 22  1  0
 18 21  1  0
M  END

$$$$

     RDKit          3D

 30 32  0  0  0  0  0  0  0  0999 V2000
    0.0000    0.0000    0.0000 C   0  0  0  0  0  0  0  0  0  0  0  0
    0.0000    0.0000    1.5279 C   0  0  0  0  0  0  0  0  0  0  0  0
    1.3737    0.0000    2.1135 C   0  0  0  0  0  0  0  0  0  0  0  0
    2.3710   -0.6664    1.1531 C   0  0  0  0  0  0  0  0  0  0  0  0
    2.4630    0.0262   -0.1861 C   0  0  0  0  0  0  0  0  0  0  0  0
    1.2420    0.6639   -0.5697 C   0  0  0  0  0  0  0  0  0  0  0  0
    3.7007   -0.6527    1.8876 N   0  0  0  0  0  0  0  0  0  0  0  0
    4.4982    0.5260    1.7066 C   0  0  0  0  0  0  0  0  0  0  0  0
    4.2944    1.7018    2.4119 C   0  0  0  0  0  0  0  0  0  0  0  0
    5.5285    0.5400    0.7913 C   0  0  0  0  0  0  0  0  0  0  0  0
    5.1226    2.7997    2.2381 C   0  0  0  0  0  0  0  0  0  0  0  0
    6.3615    1.6442    0.6161 C   0  0  0  0  0  0  0  0  0  0  0  0
    6.2372    2.6813    1.3559 C   0  0  0  0  0  0  0  0  0  0  0  0
    7.2723    1.4923   -0.3540 O   0  0  0  0  0  0  0  0  0  0  0  0
    4.9341    3.9770    2.8649 O   0  0  0  0  0  0  0  0  0  0  0  0
    8.2458    2.4813   -0.6470 C   0  0  0  0  0  0  0  0  0  0  0  0
    6.9773    3.7748    1.1831 O   0  0  0  0  0  0  0  0  0  0  0  0
    3.8156    4.2057    3.7201 C   0  0  0  0  0  0  0  0  0  0  0  0
    4.1342    5.4652    4.5242 C   0  0  0  0  0  0  0  0  0  0  0  0
    2.4946    4.3415    2.9296 C   0  0  0  0  0  0  0  0  0  0  0  0
    2.3233    5.5538    2.1818 N   0  0  0  0  0  0  0  0  0  0  0  0
    2.1936    6.7703    2.9622 C   0  0  0  0  0  0  0  0  0  0  0  0
    3.2718    5.8061    1.1130 C   0  0  0  0  0  0  0  0  0  0  0  0
    3.3230    4.6322    0.1639 C   0  0  0  0  0  0  0  0  0  0  0  0
    4.5552    4.3100   -0.4223 C   0  0  0  0  0  0  0  0  0  0  0  0
    2.1772    3.8743   -0.1543 C   0  0  0  0  0  0  0  0  0  0  0  0
    4.6838    3.1472   -1.2097 C   0  0  0  0  0  0  0  0  0  0  0  0
    5.9307    4.7617   -0.5219 C   0  0  0  0  0  0  0  0  0  0  0  0
    2.3034    2.7174   -0.9364 C   0  0  0  0  0  0  0  0  0  0  0  0
    3.6312    2.2875   -1.4389 C   0  0  0  0  0  0  0  0  0  0  0  0
  1  2  1  0
  1  6  1  0
  2  3  1  0
  3  4  1  0
  4  5  1  0
  4  7  1  0
  5  6  1  0
  7  8  1  0
  8  9  2  0
  8 10  1  0
  9 11  1  0
 10 12  2  0
 11 13  2  0
 11 15  1  0
 12 13  1  0
 12 14  1  0
 13 17  1  0
 14 16  1  0
 15 18  1  0
 18 19  1  0
 18 20  1  0
 20 21  1  0
 21 22  1  0
 21 23  1  0
 23 24  1  0
 24 25  1  0
 24 26  1  0
 25 27  1  0
 25 28  1  0
 26 29  1  0
 27 30  2  0
 29 30  1  0
M  END

$$$$

     RDKit          3D

 23 25  0  0  0  0  0  0  0  0999 V2000
    0.0000    0.0000    0.0000 C   0  0  0  0  0  0  0  0  0  0  0  0
    0.0000    0.0000    1.5105 C   0  0  0  0  0  0  0  0  0  0  0  0
    1.3930    0.0000    2.1592 C   0  0  0  0  0  0  0  0  0  0  0  0
    2.3672   -0.7225    1.2882 C   0  0  0  0  0  0  0  0  0  0  0  0
    1.2556    0.5938   -0.6366 C   0  0  0  0  0  0  0  0  0  0  0  0
    2.4807   -0.1405   -0.2011 C   0  0  0  0  0  0  0  0  0  0  0  0
    3.4665    0.2055   -1.2321 C   0  0  0  0  0  0  0  0  0  0  0  0
    4.5822   -0.2351   -1.6099 N   0  0  0  0  0  0  0  0  0  0  0  0
    3.1422    1.4222   -1.8488 N   0  0  0  0  0  0  0  0  0  0  0  0
    1.9731    1.4005    2.3502 C   0  0  0  0  0  0  0  0  0  0  0  0
    5.0841   -1.3385   -0.9213 O   0  0  0  0  0  0  0  0  0  0  0  0
   -0.7043    1.0541    2.1642 O   0  0  0  0  0  0  0  0  0  0  0  0
   -1.0403   -0.6235    2.3815 C   0  0  0  0  0  0  0  0  0  0  0  0
    3.8944    2.1132   -2.7151 C   0  0  0  0  0  0  0  0  0  0  0  0
    3.6185    3.2049   -3.3378 N   0  0  0  0  0  0  0  0  0  0  0  0
    5.5307    1.4908   -3.1047 S   0  0  0  0  0  0  0  0  0  0  0  0
    4.6061    3.6732   -4.0986 N   0  0  0  0  0  0  0  0  0  0  0  0
    5.6083    2.9545   -4.0844 C   0  0  0  0  0  0  0  0  0  0  0  0
    6.7062    3.3495   -4.8031 N   0  0  0  0  0  0  0  0  0  0  0  0
    1.7997   -1.5063    0.1621 C   0  0  0  0  0  0  0  0  0  0  0  0
    7.9773    2.8079   -4.9889 C   0  0  0  0  0  0  0  0  0  0  0  0
    8.7357    3.4576   -5.6689 O   0  0  0  0  0  0  0  0  0  0  0  0
    8.3398    1.5193   -4.3082 C   0  0  0  0  0  0  0  0  0  0  0  0
  1  2  1  0
  1  5  1  0
  2  3  1  0
  2 12  1  0
  2 13  1  0
  3  4  1  0
  3 10  1  0
  4  6  1  0
  4 20  1  0
  5  6  1  0
  6  7  1  0
  6 20  1  0
  7  8  2  3
  7  9  1  0
  8 11  1  0
  9 14  1  0
 14 15  2  0
 14 16  1  0
 15 17  1  0
 16 18  1  0
 17 18  2  0
 18 19  1  0
 19 21  1  0
 21 22  2  0
 21 23  1  0
M  END

$$$$

     RDKit          3D

 30 33  0  0  0  0  0  0  0  0999 V2000
    0.0000    0.0000    0.0000 C   0  0  0  0  0  0  0  0  0  0  0  0
    0.0000    0.0000    1.5903 C   0  0  0  0  0  0  0  0  0  0  0  0
    1.4170    0.0000    2.1134 C   0  0  0  0  0  0  0  0  0  0  0  0
    1.2635    0.6754   -0.5795 C   0  0  0  0  0  0  0  0  0  0  0  0
    2.5108   -0.0722   -0.2041 C   0  0  0  0  0  0  0  0  0  0  0  0
    2.4674   -0.6884    1.2029 C   0  0  0  0  0  0  0  0  0  0  0  0
   -0.1918   -1.2927   -0.4621 O   0  0  0  0  0  0  0  0  0  0  0  0
   -0.8832   -1.0762    2.1535 C   0  0  0  0  0  0  0  0  0  0  0  0
   -2.1043   -1.0762    2.1026 O   0  0  0  0  0  0  0  0  0  0  0  0
   -0.2052   -2.0910    2.6472 O   0  0  0  0  0  0  0  0  0  0  0  0
    3.0689   -1.0891   -1.1850 C   0  0  0  0  0  0  0  0  0  0  0  0
   -0.6523   -3.2979    3.2034 C   0  0  0  0  0  0  0  0  0  0  0  0
   -1.9540   -3.7085    3.0815 C   0  0  0  0  0  0  0  0  0  0  0  0
    0.3355   -4.0717    3.8819 C   0  0  0  0  0  0  0  0  0  0  0  0
   -2.1917   -4.9576    3.6531 C   0  0  0  0  0  0  0  0  0  0  0  0
    0.0171   -5.3519    4.4457 C   0  0  0  0  0  0  0  0  0  0  0  0
    1.6807   -3.6330    3.9785 C   0  0  0  0  0  0  0  0  0  0  0  0
   -1.3251   -5.8004    4.2987 C   0  0  0  0  0  0  0  0  0  0  0  0
    0.9759   -6.1794    5.0840 C   0  0  0  0  0  0  0  0  0  0  0  0
    2.6103   -4.4377    4.6013 C   0  0  0  0  0  0  0  0  0  0  0  0
    2.2771   -5.7251    5.0966 C   0  0  0  0  0  0  0  0  0  0  0  0
    2.0758   -2.0366    1.0014 O   0  0  0  0  0  0  0  0  0  0  0  0
    3.5310   -2.4431   -0.7571 C   0  0  0  0  0  0  0  0  0  0  0  0
    4.2337   -2.6718    0.1899 O   0  0  0  0  0  0  0  0  0  0  0  0
    3.0668   -3.4062   -1.5766 O   0  0  0  0  0  0  0  0  0  0  0  0
    2.1777    1.2691    2.2372 C   0  0  0  0  0  0  0  0  0  0  0  0
    0.6150   -7.3735    5.6513 O   0  0  0  0  0  0  0  0  0  0  0  0
    1.5592   -8.3259    6.1127 C   0  0  0  0  0  0  0  0  0  0  0  0
    3.7113    0.1055   -0.9403 O   0  0  0  0  0  0  0  0  0  0  0  0
    3.4366   -4.7345   -1.3712 C   0  0  0  0  0  0  0  0  0  0  0  0
  1  2  1  0
  1  4  1  0
  1  7  1  0
  2  3  1  0
  2  8  1  0
  3  6  1  0
  3 26  1  0
  4  5  1  0
  5  6  1  0
  5 11  1  0
  5 29  1  0
  6 22  1  0
  8  9  2  0
  8 10  1  0
 10 12  1  0
 11 23  1  0
 11 29  1  0
 12 13  2  0
 12 14  1  0
 13 15  1  0
 14 16  2  0
 14 17  1  0
 15 18  2  0
 16 18  1  0
 16 19  1  0
 17 20  2  0
 19 21  2  0
 19 27  1  0
 20 21  1  0
 23 24  2  0
 23 25  1  0
 25 30  1  0
 27 28  1  0
M  END

$$$$

     RDKit          3D

 31 33  0  0  0  0  0  0  0  0999 V2000
    0.0000    0.0000    0.0000 C   0  0  0  0  0  0  0  0  0  0  0  0
    0.0000    0.0000    1.4428 C   0  0  0  0  0  0  0  0  0  0  0  0
    1.3954    0.0000    2.0650 C   0  0  0  0  0  0  0  0  0  0  0  0
    1.2330    0.7390   -0.6589 C   0  0  0  0  0  0  0  0  0  0  0  0
    1.7063    1.7398    0.2276 C   0  0  0  0  0  0  0  0  0  0  0  0
    2.1792    1.1998    1.5763 C   0  0  0  0  0  0  0  0  0  0  0  0
    3.1722    1.5649    2.1157 O   0  0  0  0  0  0  0  0  0  0  0  0
    1.5612    0.4658   -1.7965 O   0  0  0  0  0  0  0  0  0  0  0  0
   -0.1281   -1.3010   -0.5288 N   0  0  0  0  0  0  0  0  0  0  0  0
    0.3318   -1.5146   -1.8796 C   0  0  0  0  0  0  0  0  0  0  0  0
   -1.0502    0.7017   -0.5110 O   0  0  0  0  0  0  0  0  0  0  0  0
   -1.3515   -1.9549   -0.2333 C   0  0  0  0  0  0  0  0  0  0  0  0
   -1.3236   -3.3473   -0.2948 C   0  0  0  0  0  0  0  0  0  0  0  0
   -2.5369   -1.3580    0.1081 C   0  0  0  0  0  0  0  0  0  0  0  0
   -2.4762   -4.1011   -0.0781 C   0  0  0  0  0  0  0  0  0  0  0  0
   -3.7030   -2.0466    0.4389 C   0  0  0  0  0  0  0  0  0  0  0  0
   -3.6634   -3.4381    0.2636 C   0  0  0  0  0  0  0  0  0  0  0  0
   -4.7108   -1.2355    0.7855 O   0  0  0  0  0  0  0  0  0  0  0  0
   -2.4864   -5.4328   -0.0798 O   0  0  0  0  0  0  0  0  0  0  0  0
   -1.4050   -6.1562   -0.6024 C   0  0  0  0  0  0  0  0  0  0  0  0
   -1.0161   -5.9278   -1.9047 C   0  0  0  0  0  0  0  0  0  0  0  0
   -0.7559   -7.0810    0.1869 C   0  0  0  0  0  0  0  0  0  0  0  0
    0.0255   -6.7014   -2.3926 C   0  0  0  0  0  0  0  0  0  0  0  0
    0.2975   -7.8636   -0.3069 C   0  0  0  0  0  0  0  0  0  0  0  0
    0.7118   -7.6867   -1.6842 C   0  0  0  0  0  0  0  0  0  0  0  0
    1.7943   -8.4528   -2.1141 O   0  0  0  0  0  0  0  0  0  0  0  0
    0.8323   -8.6581    0.6074 O   0  0  0  0  0  0  0  0  0  0  0  0
    1.9388   -9.5046    0.3886 C   0  0  0  0  0  0  0  0  0  0  0  0
   -4.3002    0.1186    0.5491 C   0  0  0  0  0  0  0  0  0  0  0  0
   -4.9973    0.6314   -0.7101 C   0  0  0  0  0  0  0  0  0  0  0  0
    1.7288   -8.7444   -3.5088 C   0  0  0  0  0  0  0  0  0  0  0  0
  1  2  1  0
  1  4  1  0
  1  9  1  0
  1 11  1  0
  2  3  1  0
  3  6  1  0
  4  5  1  0
  4  8  2  0
  5  6  1  0
  6  7  2  0
  9 10  1  0
  9 12  1  0
 12 13  2  0
 12 14  1  0
 13 15  1  0
 14 16  2  0
 15 17  2  0
 15 19  1  0
 16 17  1  0
 16 18  1  0
 18 29  1  0
 19 20  1  0
 20 21  2  0
 20 22  1  0
 21 23  1  0
 22 24  2  0
 23 25  2  0
 24 25  1  0
 24 27  1  0
 25 26  1  0
 26 31  1  0
 27 28  1  0
 29 30  1  0
M  END

$$$$

     RDKit          3D

 25 26  0  0  0  0  0  0  0  0999 V2000
    0.0000    0.0000    0.0000 C   0  0  0  0  0  0  0  0  0  0  0  0
    0.0000    0.0000    1.5543 C   0  0  0  0  0  0  0  0  0  0  0  0
    1.3815    0.0000    2.1433 C   0  0  0  0  0  0  0  0  0  0  0  0
    2.2578    1.1814    1.7635 C   0  0  0  0  0  0  0  0  0  0  0  0
    1.8727    1.6842    0.3146 C   0  0  0  0  0  0  0  0  0  0  0  0
    1.2420    0.6639   -0.5697 C   0  0  0  0  0  0  0  0  0  0  0  0
    1.5262    0.4306   -1.7278 O   0  0  0  0  0  0  0  0  0  0  0  0
    3.7483    0.8203    1.8590 C   0  0  0  0  0  0  0  0  0  0  0  0
    4.5797    1.6725    1.9552 O   0  0  0  0  0  0  0  0  0  0  0  0
    1.9917    2.3492    2.7122 C   0  0  0  0  0  0  0  0  0  0  0  0
    0.9312    2.6966    3.1379 O   0  0  0  0  0  0  0  0  0  0  0  0
   -0.8166    1.2221    2.0025 C   0  0  0  0  0  0  0  0  0  0  0  0
   -0.2835   -1.4252   -0.4431 C   0  0  0  0  0  0  0  0  0  0  0  0
   -0.1566   -1.9438   -1.5115 O   0  0  0  0  0  0  0  0  0  0  0  0
   -1.1362    0.9324   -0.4482 C   0  0  0  0  0  0  0  0  0  0  0  0
   -0.7784   -2.1196    0.6196 O   0  0  0  0  0  0  0  0  0  0  0  0
    3.2130    2.0065   -0.3029 C   0  0  0  0  0  0  0  0  0  0  0  0
    4.1787    1.1963    0.2925 C   0  0  0  0  0  0  0  0  0  0  0  0
    3.5528    2.8678   -1.3025 C   0  0  0  0  0  0  0  0  0  0  0  0
    5.4870    1.2585   -0.1364 C   0  0  0  0  0  0  0  0  0  0  0  0
    4.8639    2.9371   -1.7217 C   0  0  0  0  0  0  0  0  0  0  0  0
    5.7821    2.1550   -1.1733 C   0  0  0  0  0  0  0  0  0  0  0  0
    7.1595    2.3606   -1.6880 C   0  0  0  0  0  0  0  0  0  0  0  0
    7.5250    3.1266   -2.5284 O   0  0  0  0  0  0  0  0  0  0  0  0
    8.0487    1.5457   -1.0708 O   0  0  0  0  0  0  0  0  0  0  0  0
  1  2  1  0
  1  6  1  0
  1 13  1  0
  1 15  1  0
  2  3  1  0
  2 12  1  0
  3  4  1  0
  4  5  1  0
  4  8  1  0
  4 10  1  0
  5  6  1  0
  5 17  1  0
  6  7  2  0
  8  9  2  0
 10 11  2  0
 13 14  2  0
 13 16  1  0
 17 18  2  0
 17 19  1  0
 18 20  1  0
 19 21  2  0
 20 22  2  0
 21 22  1  0
 22 23  1  0
 23 24  2  0
 23 25  1  0
M  END

$$$$

     RDKit          3D

 21 24  0  0  0  0  0  0  0  0999 V2000
    0.0000    0.0000    0.0000 C   0  0  0  0  0  0  0  0  0  0  0  0
    0.0000    0.0000    1.4595 C   0  0  0  0  0  0  0  0  0  0  0  0
    1.3900    0.0000    2.1349 C   0  0  0  0  0  0  0  0  0  0  0  0
    1.2050    0.8051   -0.5862 C   0  0  0  0  0  0  0  0  0  0  0  0
    2.1549    1.2762    1.7508 C   0  0  0  0  0  0  0  0  0  0  0  0
    1.6946    1.8405    0.4382 C   0  0  0  0  0  0  0  0  0  0  0  0
    0.9860    2.1749    1.5244 C   0  0  0  0  0  0  0  0  0  0  0  0
    2.1549   -1.2762    1.7508 C   0  0  0  0  0  0  0  0  0  0  0  0
    1.2462    0.0596    3.6548 C   0  0  0  0  0  0  0  0  0  0  0  0
   -0.8997   -0.6012   -0.8663 C   0  0  0  0  0  0  0  0  0  0  0  0
   -2.0913   -1.3154   -0.7502 C   0  0  0  0  0  0  0  0  0  0  0  0
   -0.3196    1.5193    1.8725 C   0  0  0  0  0  0  0  0  0  0  0  0
   -2.8422   -1.6122    0.4257 C   0  0  0  0  0  0  0  0  0  0  0  0
   -2.5218   -1.2575    1.5658 O   0  0  0  0  0  0  0  0  0  0  0  0
   -0.2603   -0.3841   -2.2175 C   0  0  0  0  0  0  0  0  0  0  0  0
    0.8764    0.6076   -2.0385 C   0  0  0  0  0  0  0  0  0  0  0  0
    1.4530    1.1771   -2.9533 O   0  0  0  0  0  0  0  0  0  0  0  0
   -4.0894   -2.4595    0.3368 C   0  0  0  0  0  0  0  0  0  0  0  0
   -2.7421   -1.8605   -1.9995 C   0  0  0  0  0  0  0  0  0  0  0  0
    3.6497    1.3139    1.8917 C   0  0  0  0  0  0  0  0  0  0  0  0
    4.4082    0.3163    2.2699 C   0  0  0  0  0  0  0  0  0  0  0  0
  1  2  1  0
  1  4  1  0
  1 10  2  0
  2  3  1  0
  2 12  1  0
  3  5  1  0
  3  8  1  0
  3  9  1  0
  4  6  1  0
  4 16  1  0
  5  6  1  0
  5  7  1  0
  5 20  1  0
  6  7  2  0
  7 12  1  0
 10 11  1  0
 10 15  1  0
 11 13  1  0
 11 19  1  0
 13 14  2  0
 13 18  1  0
 15 16  1  0
 16 17  2  0
 20 21  2  0
M  END

$$$$

     RDKit          3D

 14 14  0  0  0  0  0  0  0  0999 V2000
    0.0000    0.0000    0.0000 C   0  0  0  0  0  0  0  0  0  0  0  0
    0.0000    0.0000    1.5018 C   0  0  0  0  0  0  0  0  0  0  0  0
    1.3815    0.0000    2.0908 C   0  0  0  0  0  0  0  0  0  0  0  0
    1.2498    0.7491   -0.5152 C   0  0  0  0  0  0  0  0  0  0  0  0
    2.1039    1.2051    1.7280 C   0  0  0  0  0  0  0  0  0  0  0  0
    1.8215    1.8188    0.3559 C   0  0  0  0  0  0  0  0  0  0  0  0
    2.3388   -0.3399   -0.6439 C   0  0  0  0  0  0  0  0  0  0  0  0
    1.7694   -0.7613    2.9450 O   0  0  0  0  0  0  0  0  0  0  0  0
    3.6399    0.0251   -0.3353 O   0  0  0  0  0  0  0  0  0  0  0  0
   -0.1221   -1.2402   -0.6426 O   0  0  0  0  0  0  0  0  0  0  0  0
    2.3859   -1.0918   -2.0137 C   0  0  0  0  0  0  0  0  0  0  0  0
    2.8813    2.8139   -0.1139 C   0  0  0  0  0  0  0  0  0  0  0  0
    2.9412    1.7317    2.6083 N   0  0  0  0  0  0  0  0  0  0  0  0
    3.2618    1.0541    3.7837 O   0  0  0  0  0  0  0  0  0  0  0  0
  1  2  1  0
  1  4  1  0
  1 10  1  0
  2  3  1  0
  3  5  1  0
  3  8  2  0
  4  6  1  0
  4  7  1  0
  5  6  1  0
  5 13  2  3
  6 12  1  0
  7  9  1  0
  7 11  1  0
 13 14  1  0
M  END

$$$$

     RDKit          3D

 14 14  0  0  0  0  0  0  0  0999 V2000
    0.0000    0.0000    0.0000 C   0  0  0  0  0  0  0  0  0  0  0  0
    0.0000    0.0000    1.5018 C   0  0  0  0  0  0  0  0  0  0  0  0
    1.3170    0.0000    2.1688 C   0  0  0  0  0  0  0  0  0  0  0  0
    1.2874    0.6089   -0.5035 C   0  0  0  0  0  0  0  0  0  0  0  0
    1.8970    1.7494    0.2431 C   0  0  0  0  0  0  0  0  0  0  0  0
    2.2033    1.1950    1.7846 C   0  0  0  0  0  0  0  0  0  0  0  0
    2.5361   -0.0586   -0.0029 C   0  0  0  0  0  0  0  0  0  0  0  0
   -1.1198    0.5985   -0.8182 C   0  0  0  0  0  0  0  0  0  0  0  0
    2.2933    2.0988    3.0242 C   0  0  0  0  0  0  0  0  0  0  0  0
    3.2926    2.0705   -0.2372 C   0  0  0  0  0  0  0  0  0  0  0  0
    1.3422    2.0197   -1.0248 O   0  0  0  0  0  0  0  0  0  0  0  0
    1.2628   -0.0542    3.6687 C   0  0  0  0  0  0  0  0  0  0  0  0
    0.4130    0.4286    4.3553 O   0  0  0  0  0  0  0  0  0  0  0  0
    2.2591   -0.7754    4.1988 O   0  0  0  0  0  0  0  0  0  0  0  0
  1  2  1  0
  1  4  1  0
  1  8  1  0
  2  3  1  0
  3  6  1  0
  3 12  1  0
  4  5  1  0
  4  7  1  0
  4 11  1  0
  5 10  1  0
  5 11  1  0
  6  9  1  0
 12 13  2  0
 12 14  1  0
M  END

$$$$

     RDKit          3D

 12 12  0  0  0  0  0  0  0  0999 V2000
    0.0000    0.0000    0.0000 C   0  0  0  0  0  0  0  0  0  0  0  0
    0.0000    0.0000    1.5995 C   0  0  0  0  0  0  0  0  0  0  0  0
    1.4082    0.0000    2.1458 C   0  0  0  0  0  0  0  0  0  0  0  0
    2.4579   -0.7014    1.3323 C   0  0  0  0  0  0  0  0  0  0  0  0
    1.2426    0.7448   -0.5122 C   0  0  0  0  0  0  0  0  0  0  0  0
    2.5788   -0.0084   -0.0537 C   0  0  0  0  0  0  0  0  0  0  0  0
    3.8530   -0.7194    1.9549 C   0  0  0  0  0  0  0  0  0  0  0  0
    4.5501    0.2573    2.0123 O   0  0  0  0  0  0  0  0  0  0  0  0
    2.2954    1.1963    1.8941 C   0  0  0  0  0  0  0  0  0  0  0  0
    2.8740   -1.0008   -1.0230 O   0  0  0  0  0  0  0  0  0  0  0  0
   -0.1918   -1.2927   -0.4621 O   0  0  0  0  0  0  0  0  0  0  0  0
    3.8033    0.9188   -0.1006 C   0  0  0  0  0  0  0  0  0  0  0  0
  1  2  1  0
  1  5  1  0
  1 11  1  0
  2  3  1  0
  3  4  1  0
  3  9  1  0
  4  6  1  0
  4  7  1  0
  5  6  1  0
  6 10  1  0
  6 12  1  0
  7  8  2  0
M  END

$$$$

     RDKit          3D

 22 23  0  0  0  0  0  0  0  0999 V2000
    0.0000    0.0000    0.0000 C   0  0  0  0  0  0  0  0  0  0  0  0
    0.0000    0.0000    1.5995 C   0  0  0  0  0  0  0  0  0  0  0  0
    1.4955    0.0000    1.9892 C   0  0  0  0  0  0  0  0  0  0  0  0
    2.2737    1.2983    1.5984 C   0  0  0  0  0  0  0  0  0  0  0  0
    1.6805    1.8166    0.2377 C   0  0  0  0  0  0  0  0  0  0  0  0
    1.1035    0.7373   -0.6844 C   0  0  0  0  0  0  0  0  0  0  0  0
    1.6546   -0.2381    3.3700 O   0  0  0  0  0  0  0  0  0  0  0  0
    3.7715    0.9959    1.4364 C   0  0  0  0  0  0  0  0  0  0  0  0
   -0.7100   -1.1845    2.2325 C   0  0  0  0  0  0  0  0  0  0  0  0
   -0.7020    1.1711    1.9520 O   0  0  0  0  0  0  0  0  0  0  0  0
   -0.0000   -1.2959   -0.3951 F   0  0  0  0  0  0  0  0  0  0  0  0
    2.2361   -1.2355    1.4799 C   0  0  0  0  0  0  0  0  0  0  0  0
    2.1459    2.4505    2.5936 C   0  0  0  0  0  0  0  0  0  0  0  0
    1.1959    2.6317    3.3179 O   0  0  0  0  0  0  0  0  0  0  0  0
    3.2614    3.4808    2.5483 C   0  0  0  0  0  0  0  0  0  0  0  0
   -1.3003    0.4652   -0.6330 C   0  0  0  0  0  0  0  0  0  0  0  0
   -1.6478    1.6108   -0.7331 O   0  0  0  0  0  0  0  0  0  0  0  0
    2.9384    4.5463    3.4006 O   0  0  0  0  0  0  0  0  0  0  0  0
    2.1063   -1.2890   -0.0415 C   0  0  0  0  0  0  0  0  0  0  0  0
   -2.1659   -0.7019   -1.0761 C   0  0  0  0  0  0  0  0  0  0  0  0
    2.0599   -0.3178   -1.1879 C   0  0  0  0  0  0  0  0  0  0  0  0
    3.1455   -0.1010   -1.6717 O   0  0  0  0  0  0  0  0  0  0  0  0
  1  2  1  0
  1  6  1  0
  1 11  1  0
  1 16  1  0
  2  3  1  0
  2  9  1  0
  2 10  1  0
  3  4  1  0
  3  7  1  0
  3 12  1  0
  4  5  1  0
  4  8  1  0
  4 13  1  0
  5  6  1  0
  6 21  1  0
 12 19  1  0
 13 14  2  0
 13 15  1  0
 15 18  1  0
 16 17  2  0
 16 20  1  0
 19 21  1  0
 21 22  2  0
M  END

$$$$

     RDKit          3D

 27 29  0  0  0  0  0  0  0  0999 V2000
    0.0000    0.0000    0.0000 C   0  0  0  0  0  0  0  0  0  0  0  0
    0.0000    0.0000    1.5018 C   0  0  0  0  0  0  0  0  0  0  0  0
    1.4326    0.0000    2.0576 C   0  0  0  0  0  0  0  0  0  0  0  0
    1.1982    0.7181   -0.6403 C   0  0  0  0  0  0  0  0  0  0  0  0
    2.4409   -0.7478    1.1561 C   0  0  0  0  0  0  0  0  0  0  0  0
    2.5103    0.0168   -0.2561 C   0  0  0  0  0  0  0  0  0  0  0  0
    3.1137   -0.5142   -1.5248 C   0  0  0  0  0  0  0  0  0  0  0  0
    2.2485   -0.2293   -2.5801 C   0  0  0  0  0  0  0  0  0  0  0  0
    4.3107   -1.1832   -1.8175 C   0  0  0  0  0  0  0  0  0  0  0  0
    2.7535   -0.7577   -3.7955 C   0  0  0  0  0  0  0  0  0  0  0  0
    4.2927   -1.4802   -3.2210 C   0  0  0  0  0  0  0  0  0  0  0  0
    5.4624   -1.5764   -1.1052 C   0  0  0  0  0  0  0  0  0  0  0  0
    5.3792   -2.1035   -3.8509 C   0  0  0  0  0  0  0  0  0  0  0  0
    6.5253   -2.1985   -1.7239 C   0  0  0  0  0  0  0  0  0  0  0  0
    6.4560   -2.4078   -3.0328 C   0  0  0  0  0  0  0  0  0  0  0  0
    3.8863   -0.8245    1.6976 C   0  0  0  0  0  0  0  0  0  0  0  0
    4.3571    0.0531    2.3445 O   0  0  0  0  0  0  0  0  0  0  0  0
    1.2045    0.5431   -2.2853 O   0  0  0  0  0  0  0  0  0  0  0  0
    1.1982    2.0603   -0.2937 O   0  0  0  0  0  0  0  0  0  0  0  0
    5.2985   -2.4063   -5.1610 O   0  0  0  0  0  0  0  0  0  0  0  0
    4.5236   -1.9548    1.5246 O   0  0  0  0  0  0  0  0  0  0  0  0
    2.0805   -0.6925   -5.0701 C   0  0  0  0  0  0  0  0  0  0  0  0
    2.6322   -1.1429   -6.0719 O   0  0  0  0  0  0  0  0  0  0  0  0
    7.7142   -2.5933   -1.2286 O   0  0  0  0  0  0  0  0  0  0  0  0
    8.5302   -3.2606   -2.2016 C   0  0  0  0  0  0  0  0  0  0  0  0
    7.7324   -3.1895   -3.3819 O   0  0  0  0  0  0  0  0  0  0  0  0
    0.8797   -0.0836   -5.1133 O   0  0  0  0  0  0  0  0  0  0  0  0
  1  2  1  0
  1  4  1  0
  2  3  1  0
  3  5  1  0
  4  6  1  0
  4 19  1  0
  5  6  1  0
  5 16  1  0
  6  7  1  0
  7  8  1  0
  7  9  1  0
  8 10  1  0
  8 18  1  0
  9 11  2  0
  9 12  1  0
 10 22  1  0
 11 13  1  0
 12 14  2  0
 13 15  2  0
 13 20  1  0
 14 15  1  0
 14 24  1  0
 15 26  1  0
 16 17  2  0
 16 21  1  0
 22 23  2  0
 22 27  1  0
 24 25  1  0
 25 26  1  0
M  END

$$$$

     RDKit          3D

 30 31  0  0  0  0  0  0  0  0999 V2000
    0.0000    0.0000    0.0000 C   0  0  0  0  0  0  0  0  0  0  0  0
    0.0000    0.0000    1.5105 C   0  0  0  0  0  0  0  0  0  0  0  0
    1.3946    0.0000    2.2167 C   0  0  0  0  0  0  0  0  0  0  0  0
    2.5026   -0.6641    1.2890 C   0  0  0  0  0  0  0  0  0  0  0  0
    0.7824   -1.1709   -0.5697 C   0  0  0  0  0  0  0  0  0  0  0  0
    1.9578   -1.7774    0.3808 C   0  0  0  0  0  0  0  0  0  0  0  0
    1.4375   -2.9078    1.0780 O   0  0  0  0  0  0  0  0  0  0  0  0
    0.9360   -1.1404   -2.0983 C   0  0  0  0  0  0  0  0  0  0  0  0
    1.7839    1.2834    2.6257 O   0  0  0  0  0  0  0  0  0  0  0  0
    1.8149   -2.4175   -2.2992 C   0  0  0  0  0  0  0  0  0  0  0  0
    2.2876   -3.8687    1.4627 C   0  0  0  0  0  0  0  0  0  0  0  0
    3.4771   -3.7690    1.2761 O   0  0  0  0  0  0  0  0  0  0  0  0
    1.6043   -5.0257    2.1334 C   0  0  0  0  0  0  0  0  0  0  0  0
    1.6487    0.1105   -2.6604 C   0  0  0  0  0  0  0  0  0  0  0  0
    1.3412   -0.8156    3.3560 O   0  0  0  0  0  0  0  0  0  0  0  0
    0.7621    1.1893   -2.7866 O   0  0  0  0  0  0  0  0  0  0  0  0
   -0.3680   -1.2355   -2.8546 C   0  0  0  0  0  0  0  0  0  0  0  0
   -0.3938   -2.4526   -3.4490 C   0  0  0  0  0  0  0  0  0  0  0  0
   -1.5588   -0.4073   -2.8970 C   0  0  0  0  0  0  0  0  0  0  0  0
   -2.5761   -0.7284   -3.4789 O   0  0  0  0  0  0  0  0  0  0  0  0
    0.9982   -3.2895   -3.0485 O   0  0  0  0  0  0  0  0  0  0  0  0
   -1.4633    0.7397   -2.1971 O   0  0  0  0  0  0  0  0  0  0  0  0
   -1.4502   -3.1042   -4.2638 C   0  0  0  0  0  0  0  0  0  0  0  0
   -2.6407    1.5730   -2.1666 C   0  0  0  0  0  0  0  0  0  0  0  0
   -3.5394    1.2325   -1.0012 C   0  0  0  0  0  0  0  0  0  0  0  0
   -3.4984    1.9469    0.1860 C   0  0  0  0  0  0  0  0  0  0  0  0
   -4.3868    0.1358   -1.0215 C   0  0  0  0  0  0  0  0  0  0  0  0
   -4.3074    1.5661    1.2452 C   0  0  0  0  0  0  0  0  0  0  0  0
   -5.1825   -0.2400    0.0291 C   0  0  0  0  0  0  0  0  0  0  0  0
   -5.1798    0.4806    1.1825 C   0  0  0  0  0  0  0  0  0  0  0  0
  1  2  1  0
  1  5  1  0
  2  3  1  0
  3  4  1  0
  3  9  1  0
  3 15  1  0
  4  6  1  0
  5  6  1  0
  5  8  1  0
  6  7  1  0
  7 11  1  0
  8 10  1  0
  8 14  1  0
  8 17  1  0
 10 21  1  0
 11 12  2  0
 11 13  1  0
 14 16  1  0
 17 18  2  3
 17 19  1  0
 18 23  1  0
 19 20  2  0
 19 22  1  0
 22 24  1  0
 24 25  1  0
 25 26  2  0
 25 27  1  0
 26 28  1  0
 27 29  2  0
 28 30  2  0
 29 30  1  0
M  END

$$$$

     RDKit          3D

 30 32  0  0  0  0  0  0  0  0999 V2000
    0.0000    0.0000    0.0000 C   0  0  0  0  0  0  0  0  0  0  0  0
    0.0000    0.0000    1.5018 C   0  0  0  0  0  0  0  0  0  0  0  0
    1.3737    0.0000    2.0874 C   0  0  0  0  0  0  0  0  0  0  0  0
    2.4140   -0.6235    1.2164 C   0  0  0  0  0  0  0  0  0  0  0  0
    1.2258    0.8191   -0.5964 C   0  0  0  0  0  0  0  0  0  0  0  0
    2.5081    0.1049   -0.1737 C   0  0  0  0  0  0  0  0  0  0  0  0
    0.7916    1.7371   -1.5047 O   0  0  0  0  0  0  0  0  0  0  0  0
    2.4524   -2.1571    1.1261 C   0  0  0  0  0  0  0  0  0  0  0  0
    0.0666   -1.3558   -0.6222 C   0  0  0  0  0  0  0  0  0  0  0  0
   -0.2207   -2.5028   -0.2616 N   0  0  0  0  0  0  0  0  0  0  0  0
    1.8927    1.4661    0.5616 N   0  0  0  0  0  0  0  0  0  0  0  0
    0.8987    2.2911    1.3107 C   0  0  0  0  0  0  0  0  0  0  0  0
   -1.2362    0.8260   -0.4533 C   0  0  0  0  0  0  0  0  0  0  0  0
   -1.9554    1.3594    0.3475 O   0  0  0  0  0  0  0  0  0  0  0  0
    0.5529   -1.1584   -2.0202 N   0  0  0  0  0  0  0  0  0  0  0  0
   -0.5470   -1.6282   -2.8856 C   0  0  0  0  0  0  0  0  0  0  0  0
    3.6759   -2.2722    0.2035 C   0  0  0  0  0  0  0  0  0  0  0  0
    4.7260   -1.4368    1.0400 C   0  0  0  0  0  0  0  0  0  0  0  0
    5.0990   -2.0901    2.3498 C   0  0  0  0  0  0  0  0  0  0  0  0
    4.4208   -1.7235    3.4828 C   0  0  0  0  0  0  0  0  0  0  0  0
    6.0830   -3.1335    2.3824 C   0  0  0  0  0  0  0  0  0  0  0  0
    4.6362   -2.2949    4.7449 C   0  0  0  0  0  0  0  0  0  0  0  0
    6.3643   -3.7545    3.6354 C   0  0  0  0  0  0  0  0  0  0  0  0
    6.8071   -3.5863    1.2805 C   0  0  0  0  0  0  0  0  0  0  0  0
    5.5793   -3.2814    4.8690 C   0  0  0  0  0  0  0  0  0  0  0  0
    7.2974   -4.8308    3.7094 C   0  0  0  0  0  0  0  0  0  0  0  0
    7.6980   -4.6149    1.3504 C   0  0  0  0  0  0  0  0  0  0  0  0
    7.9703   -5.2314    2.5753 C   0  0  0  0  0  0  0  0  0  0  0  0
    5.8438   -1.1973    0.2842 O   0  0  0  0  0  0  0  0  0  0  0  0
    7.4966   -5.4214    4.9123 O   0  0  0  0  0  0  0  0  0  0  0  0
  1  2  1  0
  1  5  1  0
  1  9  1  0
  1 13  1  0
  2  3  1  0
  3  4  1  0
  4  6  1  0
  4  8  1  0
  5  6  1  0
  5  7  1  0
  5 11  1  0
  8 17  1  0
  9 10  2  0
  9 15  1  0
 11 12  1  0
 13 14  2  0
 15 16  1  0
 17 18  1  0
 18 19  1  0
 18 29  1  0
 19 20  2  0
 19 21  1  0
 20 22  1  0
 21 23  2  0
 21 24  1  0
 22 25  2  0
 23 25  1  0
 23 26  1  0
 24 27  2  0
 26 28  2  0
 26 30  1  0
 27 28  1  0
M  END

$$$$

     RDKit          3D

 15 16  0  0  0  0  0  0  0  0999 V2000
    0.0000    0.0000    0.0000 C   0  0  0  0  0  0  0  0  0  0  0  0
    0.0000    0.0000    1.5105 C   0  0  0  0  0  0  0  0  0  0  0  0
    1.4278    0.0000    2.1471 C   0  0  0  0  0  0  0  0  0  0  0  0
    0.8005   -1.1981   -0.5829 C   0  0  0  0  0  0  0  0  0  0  0  0
    2.4482   -0.6819    1.1644 C   0  0  0  0  0  0  0  0  0  0  0  0
    1.9160   -1.7256    0.3033 C   0  0  0  0  0  0  0  0  0  0  0  0
    1.8509    1.3947    2.7367 C   0  0  0  0  0  0  0  0  0  0  0  0
    1.4434    2.3384    1.8067 O   0  0  0  0  0  0  0  0  0  0  0  0
   -0.2683   -2.2669   -0.9048 C   0  0  0  0  0  0  0  0  0  0  0  0
    3.3112    1.5467    3.0090 C   0  0  0  0  0  0  0  0  0  0  0  0
    3.6667    0.1764    0.7901 C   0  0  0  0  0  0  0  0  0  0  0  0
    0.5297    1.2789   -0.5600 N   0  0  0  0  0  0  0  0  0  0  0  0
   -0.0522    1.5819   -1.8730 C   0  0  0  0  0  0  0  0  0  0  0  0
    0.5886    2.4766    0.3012 C   0  0  0  0  0  0  0  0  0  0  0  0
    0.0569   -1.3738   -1.7777 O   0  0  0  0  0  0  0  0  0  0  0  0
  1  2  1  0
  1  4  1  0
  1 12  1  0
  2  3  1  0
  3  5  1  0
  3  7  1  0
  4  6  1  0
  4  9  1  0
  4 15  1  0
  5  6  1  0
  5 11  1  0
  7  8  1  0
  7 10  1  0
  9 15  1  0
 12 13  1  0
 12 14  1  0
M  END

$$$$

     RDKit          3D

 28 29  0  0  0  0  0  0  0  0999 V2000
    0.0000    0.0000    0.0000 C   0  0  0  0  0  0  0  0  0  0  0  0
    0.0000    0.0000    1.4933 C   0  0  0  0  0  0  0  0  0  0  0  0
    1.4630    0.0000    2.1169 C   0  0  0  0  0  0  0  0  0  0  0  0
    0.6792   -1.2708   -0.5829 C   0  0  0  0  0  0  0  0  0  0  0  0
    2.4316   -0.7184    1.2508 C   0  0  0  0  0  0  0  0  0  0  0  0
    1.9065   -1.8317    0.4667 C   0  0  0  0  0  0  0  0  0  0  0  0
    3.6903   -0.5894    0.9794 N   0  0  0  0  0  0  0  0  0  0  0  0
    2.8991   -2.2504   -0.2235 N   0  0  0  0  0  0  0  0  0  0  0  0
    3.9684   -1.5566    0.0493 N   0  0  0  0  0  0  0  0  0  0  0  0
    1.4064   -0.5739    3.4395 C   0  0  0  0  0  0  0  0  0  0  0  0
    1.3655   -0.9753    4.4998 N   0  0  0  0  0  0  0  0  0  0  0  0
    5.2990   -1.6678   -0.3784 C   0  0  0  0  0  0  0  0  0  0  0  0
    6.1484   -0.9254    0.0732 O   0  0  0  0  0  0  0  0  0  0  0  0
    5.5595   -2.7703   -1.3513 C   0  0  0  0  0  0  0  0  0  0  0  0
    7.0805   -2.9166   -1.5136 C   0  0  0  0  0  0  0  0  0  0  0  0
    7.3978   -3.8688   -2.6540 C   0  0  0  0  0  0  0  0  0  0  0  0
    1.9490    1.3585    2.1169 C   0  0  0  0  0  0  0  0  0  0  0  0
    2.3167    2.4455    2.1079 N   0  0  0  0  0  0  0  0  0  0  0  0
   -0.7869   -1.1777    2.0662 C   0  0  0  0  0  0  0  0  0  0  0  0
   -0.2249   -2.3724   -0.6423 N   0  0  0  0  0  0  0  0  0  0  0  0
    4.9435   -2.4770   -2.7184 C   0  0  0  0  0  0  0  0  0  0  0  0
   -1.3449   -2.4646   -1.4402 C   0  0  0  0  0  0  0  0  0  0  0  0
   -1.5618   -1.5583   -2.4663 C   0  0  0  0  0  0  0  0  0  0  0  0
   -2.2544   -3.4977   -1.2183 C   0  0  0  0  0  0  0  0  0  0  0  0
   -2.6884   -1.7859   -3.2269 C   0  0  0  0  0  0  0  0  0  0  0  0
   -3.3688   -3.6599   -2.0264 C   0  0  0  0  0  0  0  0  0  0  0  0
   -3.6121   -2.8085   -3.0766 C   0  0  0  0  0  0  0  0  0  0  0  0
   -2.8867   -0.8437   -4.1910 F   0  0  0  0  0  0  0  0  0  0  0  0
  1  2  1  0
  1  4  1  0
  2  3  1  0
  2 19  1  0
  3  5  1  0
  3 10  1  0
  3 17  1  0
  4 20  1  0
  5  6  1  0
  5  7  2  0
  6  8  2  0
  7  9  1  0
  8  9  1  0
  9 12  1  0
 10 11  3  0
 12 13  2  0
 12 14  1  0
 14 15  1  0
 14 21  1  0
 15 16  1  0
 17 18  3  0
 20 22  1  0
 22 23  2  0
 22 24  1  0
 23 25  1  0
 24 26  2  0
 25 27  2  0
 25 28  1  0
 26 27  1  0
M  END

$$$$

     RDKit          3D

 30 32  0  0  0  0  0  0  0  0999 V2000
    0.0000    0.0000    0.0000 C   0  0  0  0  0  0  0  0  0  0  0  0
    0.0000    0.0000    1.5455 C   0  0  0  0  0  0  0  0  0  0  0  0
    1.4244    0.0000    2.0981 C   0  0  0  0  0  0  0  0  0  0  0  0
    1.2708    0.6792   -0.5829 C   0  0  0  0  0  0  0  0  0  0  0  0
    1.8234    1.7132    0.3558 C   0  0  0  0  0  0  0  0  0  0  0  0
    2.2504    1.2362    1.6447 C   0  0  0  0  0  0  0  0  0  0  0  0
    3.6683    0.8574    1.6202 N   0  0  0  0  0  0  0  0  0  0  0  0
    4.1783    0.5405    2.8873 N   0  0  0  0  0  0  0  0  0  0  0  0
    2.1830    2.4233    2.4911 N   0  0  0  0  0  0  0  0  0  0  0  0
    0.8795    3.0439    2.6379 C   0  0  0  0  0  0  0  0  0  0  0  0
    0.1326   -1.3464   -0.5473 N   0  0  0  0  0  0  0  0  0  0  0  0
    4.8043    1.5173    3.6018 C   0  0  0  0  0  0  0  0  0  0  0  0
    4.9658    1.3493    5.2407 S   0  0  0  0  0  0  0  0  0  0  0  0
    2.9096    2.3912    3.7276 C   0  0  0  0  0  0  0  0  0  0  0  0
    5.2623    2.5667    2.8632 N   0  0  0  0  0  0  0  0  0  0  0  0
    5.9821    3.7210    3.1291 C   0  0  0  0  0  0  0  0  0  0  0  0
    6.5300    3.9768    4.3589 C   0  0  0  0  0  0  0  0  0  0  0  0
    6.1383    4.6824    2.0982 C   0  0  0  0  0  0  0  0  0  0  0  0
    7.2900    5.1673    4.4885 C   0  0  0  0  0  0  0  0  0  0  0  0
    6.8621    5.8209    2.2217 C   0  0  0  0  0  0  0  0  0  0  0  0
    7.9153    5.4479    5.7209 C   0  0  0  0  0  0  0  0  0  0  0  0
    7.5317    6.1131    3.4597 C   0  0  0  0  0  0  0  0  0  0  0  0
    8.6057    6.6462    5.8151 C   0  0  0  0  0  0  0  0  0  0  0  0
    8.2658    7.3303    3.6540 C   0  0  0  0  0  0  0  0  0  0  0  0
    8.7349    7.5896    4.8078 C   0  0  0  0  0  0  0  0  0  0  0  0
    8.3866    8.1807    2.6064 O   0  0  0  0  0  0  0  0  0  0  0  0
    0.5872    3.6260    1.2461 C   0  0  0  0  0  0  0  0  0  0  0  0
    7.8156    4.4389    7.0776 Cl  0  0  0  0  0  0  0  0  0  0  0  0
    9.0389    9.4376    2.6859 C   0  0  0  0  0  0  0  0  0  0  0  0
    9.3124    6.9702    7.3975 Cl  0  0  0  0  0  0  0  0  0  0  0  0
  1  2  1  0
  1  4  1  0
  1 11  1  0
  2  3  1  0
  3  6  1  0
  4  5  1  0
  5  6  1  0
  6  7  1  0
  6  9  1  0
  7  8  1  0
  8 12  1  0
  9 10  1  0
  9 14  1  0
 10 27  1  0
 12 13  1  0
 12 15  1  0
 15 16  1  0
 16 17  2  0
 16 18  1  0
 17 19  1  0
 18 20  2  0
 19 21  2  0
 19 22  1  0
 20 22  1  0
 21 23  1  0
 21 28  1  0
 22 24  2  0
 23 25  2  0
 23 30  1  0
 24 25  1  0
 24 26  1  0
 26 29  1  0
M  END

$$$$

     RDKit          3D

 32 32  0  0  0  0  0  0  0  0999 V2000
    0.0000    0.0000    0.0000 C   0  0  0  0  0  0  0  0  0  0  0  0
    0.0000    0.0000    1.5543 C   0  0  0  0  0  0  0  0  0  0  0  0
    1.4217    0.0000    2.1604 C   0  0  0  0  0  0  0  0  0  0  0  0
    1.1844    0.7914   -0.5762 C   0  0  0  0  0  0  0  0  0  0  0  0
    2.5671   -0.0373   -0.1600 C   0  0  0  0  0  0  0  0  0  0  0  0
    2.4212   -0.6377    1.1901 C   0  0  0  0  0  0  0  0  0  0  0  0
    2.8412   -1.8612    1.5373 C   0  0  0  0  0  0  0  0  0  0  0  0
    1.8118    0.9419    3.2983 C   0  0  0  0  0  0  0  0  0  0  0  0
    3.8446    0.9091   -0.1219 C   0  0  0  0  0  0  0  0  0  0  0  0
    0.8640    0.6437   -1.9250 O   0  0  0  0  0  0  0  0  0  0  0  0
    3.5227   -2.5766    0.5084 C   0  0  0  0  0  0  0  0  0  0  0  0
    3.7267   -2.0531   -0.7243 C   0  0  0  0  0  0  0  0  0  0  0  0
    4.5697    1.0336   -1.5012 C   0  0  0  0  0  0  0  0  0  0  0  0
    5.7609    0.8767   -1.6829 O   0  0  0  0  0  0  0  0  0  0  0  0
    3.4996    2.1080    0.3218 O   0  0  0  0  0  0  0  0  0  0  0  0
    1.2618    0.4812    4.5885 N   0  0  0  0  0  0  0  0  0  0  0  0
   -0.7965    1.0740    2.0271 O   0  0  0  0  0  0  0  0  0  0  0  0
    3.7568    1.3454   -2.4786 O   0  0  0  0  0  0  0  0  0  0  0  0
    4.3103    1.5438   -3.7872 C   0  0  0  0  0  0  0  0  0  0  0  0
    5.1448    2.8021   -3.8270 C   0  0  0  0  0  0  0  0  0  0  0  0
    4.7301    3.9861   -3.2564 C   0  0  0  0  0  0  0  0  0  0  0  0
    6.3984    2.7905   -4.4369 C   0  0  0  0  0  0  0  0  0  0  0  0
    5.4856    5.1573   -3.2242 C   0  0  0  0  0  0  0  0  0  0  0  0
    7.1485    3.9558   -4.4053 C   0  0  0  0  0  0  0  0  0  0  0  0
    6.7369    5.1386   -3.8016 C   0  0  0  0  0  0  0  0  0  0  0  0
    1.3931    2.3539    3.0040 C   0  0  0  0  0  0  0  0  0  0  0  0
    8.3624    4.0827   -5.0108 O   0  0  0  0  0  0  0  0  0  0  0  0
    3.3014    0.9206    3.0490 C   0  0  0  0  0  0  0  0  0  0  0  0
    4.1578    1.0838    3.8855 O   0  0  0  0  0  0  0  0  0  0  0  0
    7.5360    6.2203   -3.8784 O   0  0  0  0  0  0  0  0  0  0  0  0
    8.9227    3.0479   -5.7732 C   0  0  0  0  0  0  0  0  0  0  0  0
    3.5564    0.6822    1.7238 N   0  0  0  0  0  0  0  0  0  0  0  0
  1  2  1  0
  1  4  1  0
  2  3  1  0
  2 17  1  0
  3  6  1  0
  3  8  1  0
  4 10  1  0
  5  6  1  0
  5  9  1  0
  6  7  2  3
  7 11  1  0
  8 16  1  0
  8 26  1  0
  8 28  1  0
  9 13  1  0
  9 15  1  0
 11 12  2  0
 13 14  2  0
 13 18  1  0
 18 19  1  0
 19 20  1  0
 20 21  2  0
 20 22  1  0
 21 23  1  0
 22 24  2  0
 23 25  2  0
 24 25  1  0
 24 27  1  0
 25 30  1  0
 27 31  1  0
 28 29  2  0
 28 32  1  0
M  END

$$$$

     RDKit          3D

 31 32  0  0  0  0  0  0  0  0999 V2000
    0.0000    0.0000    0.0000 C   0  0  0  0  0  0  0  0  0  0  0  0
    0.0000    0.0000    1.5455 C   0  0  0  0  0  0  0  0  0  0  0  0
    1.3795    0.0000    2.1606 C   0  0  0  0  0  0  0  0  0  0  0  0
    1.1777    0.7869   -0.5729 C   0  0  0  0  0  0  0  0  0  0  0  0
    2.1577    1.2983    1.7698 C   0  0  0  0  0  0  0  0  0  0  0  0
    1.6618    1.8105    0.4398 C   0  0  0  0  0  0  0  0  0  0  0  0
    1.9371    2.2682    2.8721 N   0  0  0  0  0  0  0  0  0  0  0  0
   -0.0703   -1.4305   -0.5064 C   0  0  0  0  0  0  0  0  0  0  0  0
   -0.6160   -2.3411    0.0411 O   0  0  0  0  0  0  0  0  0  0  0  0
    0.6091   -1.6294   -1.7542 N   0  0  0  0  0  0  0  0  0  0  0  0
   -0.0034   -1.5295   -2.9848 C   0  0  0  0  0  0  0  0  0  0  0  0
    0.5954   -1.7471   -4.0114 O   0  0  0  0  0  0  0  0  0  0  0  0
    2.7353    3.4013    3.0842 C   0  0  0  0  0  0  0  0  0  0  0  0
    3.4510    3.8558    2.2138 O   0  0  0  0  0  0  0  0  0  0  0  0
   -1.4637   -1.1897   -2.8988 C   0  0  0  0  0  0  0  0  0  0  0  0
    3.5310    1.0287    1.6845 O   0  0  0  0  0  0  0  0  0  0  0  0
    1.3254    0.0542    3.6605 C   0  0  0  0  0  0  0  0  0  0  0  0
    0.6842    0.9055    4.5343 C   0  0  0  0  0  0  0  0  0  0  0  0
    2.1417   -0.9869    4.1250 C   0  0  0  0  0  0  0  0  0  0  0  0
    0.8840    0.7111    5.8761 C   0  0  0  0  0  0  0  0  0  0  0  0
    2.3504   -1.1764    5.4822 C   0  0  0  0  0  0  0  0  0  0  0  0
    1.7196   -0.3297    6.3054 C   0  0  0  0  0  0  0  0  0  0  0  0
    1.8358   -0.3322    7.6474 O   0  0  0  0  0  0  0  0  0  0  0  0
    2.6921    3.9347    4.4153 C   0  0  0  0  0  0  0  0  0  0  0  0
    2.1809    3.2527    5.4783 C   0  0  0  0  0  0  0  0  0  0  0  0
    2.6417   -1.6971    3.0345 N   0  0  0  0  0  0  0  0  0  0  0  0
    2.6147   -1.3754    8.2099 C   0  0  0  0  0  0  0  0  0  0  0  0
    3.4646   -2.8612    3.0833 C   0  0  0  0  0  0  0  0  0  0  0  0
    2.1635    3.6905    6.7440 N   0  0  0  0  0  0  0  0  0  0  0  0
    1.8082    2.7521    7.7923 C   0  0  0  0  0  0  0  0  0  0  0  0
    2.5921    5.0536    7.1150 C   0  0  0  0  0  0  0  0  0  0  0  0
  1  2  1  0
  1  4  1  0
  1  8  1  0
  2  3  1  0
  3  5  1  0
  3 17  1  0
  4  6  1  0
  5  6  1  0
  5  7  1  0
  5 16  1  0
  7 13  1  0
  8  9  2  0
  8 10  1  0
 10 11  1  0
 11 12  2  0
 11 15  1  0
 13 14  2  0
 13 24  1  0
 17 18  2  0
 17 19  1  0
 18 20  1  0
 19 21  2  0
 19 26  1  0
 20 22  2  0
 21 22  1  0
 22 23  1  0
 23 27  1  0
 24 25  2  3
 25 29  1  0
 26 28  1  0
 29 30  1  0
 29 31  1  0
M  END

$$$$
