
     RDKit          3D

 22 24  0  0  0  0  0  0  0  0999 V2000
    0.0000    0.0000   -0.0000 C   0  0  0  0  0  0  0  0  0  0  0  0
    0.0000    0.0000    1.5279 C   0  0  0  0  0  0  0  0  0  0  0  0
    1.4333   -0.0000    2.0570 C   0  0  0  0  0  0  0  0  0  0  0  0
    0.7406   -1.2355   -0.5093 C   0  0  0  0  0  0  0  0  0  0  0  0
    2.2202   -1.1777    1.4840 C   0  0  0  0  0  0  0  0  0  0  0  0
    2.1732   -1.1586   -0.0430 C   0  0  0  0  0  0  0  0  0  0  0  0
    2.8645   -2.2893   -0.6340 N   0  0  0  0  0  0  0  0  0  0  0  0
    4.1127   -2.2618   -1.1188 C   0  0  0  0  0  0  0  0  0  0  0  0
    4.8038   -1.1146   -1.1350 N   0  0  0  0  0  0  0  0  0  0  0  0
    4.6904   -3.4382   -1.6171 C   0  0  0  0  0  0  0  0  0  0  0  0
    5.9958   -1.1242   -1.6576 C   0  0  0  0  0  0  0  0  0  0  0  0
    5.9526   -3.4480   -2.1706 C   0  0  0  0  0  0  0  0  0  0  0  0
    6.6076   -2.2423   -2.2026 C   0  0  0  0  0  0  0  0  0  0  0  0
    6.7048   -5.0873   -2.7657 Br  0  0  0  0  0  0  0  0  0  0  0  0
    7.8392   -2.0444   -2.7510 O   0  0  0  0  0  0  0  0  0  0  0  0
    8.8082   -3.0037   -2.4607 C   0  0  0  0  0  0  0  0  0  0  0  0
    9.7767   -3.1915   -3.4345 C   0  0  0  0  0  0  0  0  0  0  0  0
    8.8763   -3.7149   -1.2728 C   0  0  0  0  0  0  0  0  0  0  0  0
   10.7836   -4.0947   -3.1703 C   0  0  0  0  0  0  0  0  0  0  0  0
    9.8887   -4.6244   -1.0098 C   0  0  0  0  0  0  0  0  0  0  0  0
   10.8799   -4.7485   -1.9787 C   0  0  0  0  0  0  0  0  0  0  0  0
   10.0228   -5.3050    0.1539 O   0  0  0  0  0  0  0  0  0  0  0  0
  2  1  1  0
  3  2  1  0
  4  1  1  0
  5  3  1  0
  6  5  1  0
  6  4  1  0
  7  6  1  0
  8  7  1  0
  9  8  2  0
 10  8  1  0
 11  9  1  0
 12 10  2  0
 13 12  1  0
 13 11  2  0
 14 12  1  0
 15 13  1  0
 16 15  1  0
 17 16  2  0
 18 16  1  0
 19 17  1  0
 20 18  2  0
 21 20  1  0
 21 19  2  0
 22 20  1  0
M  END
>  <SMILES>  (1) 
Oc1cccc(Oc2cnc(NC3CCCCC3)cc2Br)c1

>  <scaffold>  (1) 
cyclohexane

$$$$

     RDKit          3D

 36 38  0  0  0  0  0  0  0  0999 V2000
   -0.0000   -0.0000    0.0000 C   0  0  0  0  0  0  0  0  0  0  0  0
    0.0000    0.0000    1.5279 C   0  0  0  0  0  0  0  0  0  0  0  0
    1.4333    0.0000    2.0570 C   0  0  0  0  0  0  0  0  0  0  0  0
    2.2247    1.1844    1.4807 C   0  0  0  0  0  0  0  0  0  0  0  0
    0.7869    1.1777   -0.5729 C   0  0  0  0  0  0  0  0  0  0  0  0
    2.1774    1.1653   -0.0551 C   0  0  0  0  0  0  0  0  0  0  0  0
    1.7182    2.4378    1.9850 N   0  0  0  0  0  0  0  0  0  0  0  0
    2.0917    2.9878    3.1743 C   0  0  0  0  0  0  0  0  0  0  0  0
    1.3289    3.9765    3.6371 N   0  0  0  0  0  0  0  0  0  0  0  0
    3.1784    2.5293    3.8089 N   0  0  0  0  0  0  0  0  0  0  0  0
    1.6855    4.5789    4.7789 C   0  0  0  0  0  0  0  0  0  0  0  0
    3.5327    3.1283    4.9442 C   0  0  0  0  0  0  0  0  0  0  0  0
    2.8316    4.1477    5.4285 C   0  0  0  0  0  0  0  0  0  0  0  0
    0.8685    5.5947    5.1182 O   0  0  0  0  0  0  0  0  0  0  0  0
    4.6842    2.6546    5.5353 N   0  0  0  0  0  0  0  0  0  0  0  0
    1.1090    6.2781    6.3375 C   0  0  0  0  0  0  0  0  0  0  0  0
    0.6220    5.4822    7.5474 C   0  0  0  0  0  0  0  0  0  0  0  0
    1.0548    6.0648    8.8920 C   0  0  0  0  0  0  0  0  0  0  0  0
    0.5070    5.2782   10.0482 C   0  0  0  0  0  0  0  0  0  0  0  0
    1.2513    4.3089   10.6854 C   0  0  0  0  0  0  0  0  0  0  0  0
   -0.7922    5.5018   10.5015 C   0  0  0  0  0  0  0  0  0  0  0  0
    0.6825    3.5705   11.7220 C   0  0  0  0  0  0  0  0  0  0  0  0
   -1.3447    4.7834   11.5085 C   0  0  0  0  0  0  0  0  0  0  0  0
   -0.6270    3.7617   12.1605 C   0  0  0  0  0  0  0  0  0  0  0  0
   -1.4516    2.8223   13.6338 Br  0  0  0  0  0  0  0  0  0  0  0  0
   -2.5763    4.9959   12.0109 O   0  0  0  0  0  0  0  0  0  0  0  0
   -3.3743    6.0595   11.5415 C   0  0  0  0  0  0  0  0  0  0  0  0
   -4.0376    5.8258   10.1851 C   0  0  0  0  0  0  0  0  0  0  0  0
   -5.1049    4.9250   10.3094 O   0  0  0  0  0  0  0  0  0  0  0  0
   -5.8429    4.6659    9.1166 C   0  0  0  0  0  0  0  0  0  0  0  0
   -7.0069    3.7188    9.4041 C   0  0  0  0  0  0  0  0  0  0  0  0
   -7.8026    3.3637    8.1384 C   0  0  0  0  0  0  0  0  0  0  0  0
   -8.9185    2.3743    8.4704 C   0  0  0  0  0  0  0  0  0  0  0  0
   -9.7016    2.1001    7.2082 C   0  0  0  0  0  0  0  0  0  0  0  0
  -10.8665    1.1552    7.4990 C   0  0  0  0  0  0  0  0  0  0  0  0
  -11.6559    0.9542    6.2064 C   0  0  0  0  0  0  0  0  0  0  0  0
  2  1  1  0
  3  2  1  0
  4  3  1  0
  5  1  1  0
  6  5  1  0
  6  4  1  0
  7  4  1  0
  8  7  1  0
  9  8  2  0
 10  8  1  0
 11  9  1  0
 12 10  2  0
 13 12  1  0
 13 11  2  0
 14 11  1  0
 15 12  1  0
 16 14  1  0
 17 16  1  0
 18 17  1  0
 19 18  1  0
 20 19  2  0
 21 19  1  0
 22 20  1  0
 23 21  2  0
 24 23  1  0
 24 22  2  0
 25 24  1  0
 26 23  1  0
 27 26  1  0
 28 27  1  0
 29 28  2  0
 30 29  1  0
 31 30  1  0
 32 31  1  0
 33 32  1  0
 34 33  1  0
 35 34  1  0
 36 35  1  0
M  CHG  2  29   1  33  -1
M  END
>  <SMILES>  (2) 
CCC[CH-]CCC[O+]=CCOc1cc(CCCOc2cc(N)nc(NC3CCCCC3)n2)ccc1Br

>  <scaffold>  (2) 
cyclohexane

$$$$

     RDKit          3D

 20 21  0  0  0  0  0  0  0  0999 V2000
   -0.0000    0.0000    0.0000 C   0  0  0  0  0  0  0  0  0  0  0  0
    0.0000    0.0000    1.5279 C   0  0  0  0  0  0  0  0  0  0  0  0
    1.4333    0.0000    2.0570 C   0  0  0  0  0  0  0  0  0  0  0  0
    0.7869    1.1777   -0.5729 C   0  0  0  0  0  0  0  0  0  0  0  0
    2.2202    1.1777    1.4840 C   0  0  0  0  0  0  0  0  0  0  0  0
    2.2404    1.0871   -0.0498 C   0  0  0  0  0  0  0  0  0  0  0  0
    3.0891    2.1069   -0.6377 N   0  0  0  0  0  0  0  0  0  0  0  0
    2.8701    3.4593   -0.6060 C   0  0  0  0  0  0  0  0  0  0  0  0
    1.7024    3.9482   -0.2179 N   0  0  0  0  0  0  0  0  0  0  0  0
    3.9001    4.3320   -1.0137 C   0  0  0  0  0  0  0  0  0  0  0  0
    1.5231    5.2370   -0.2476 N   0  0  0  0  0  0  0  0  0  0  0  0
    3.7112    5.6810   -1.0452 C   0  0  0  0  0  0  0  0  0  0  0  0
    2.4315    6.0937   -0.6405 C   0  0  0  0  0  0  0  0  0  0  0  0
    2.1872    7.4014   -0.6992 O   0  0  0  0  0  0  0  0  0  0  0  0
    0.9041    7.8681   -0.2589 C   0  0  0  0  0  0  0  0  0  0  0  0
    0.8000    7.9170    1.2647 C   0  0  0  0  0  0  0  0  0  0  0  0
    1.7939    8.9117    1.8623 C   0  0  0  0  0  0  0  0  0  0  0  0
    1.7677    8.9584    3.3893 C   0  0  0  0  0  0  0  0  0  0  0  0
    2.7498   10.0172    3.9399 C   0  0  0  0  0  0  0  0  0  0  0  0
    2.7233   10.1348    5.3777 N   0  0  0  0  0  0  0  0  0  0  0  0
  2  1  1  0
  3  2  1  0
  4  1  1  0
  5  3  1  0
  6  5  1  0
  6  4  1  0
  7  6  1  0
  8  7  1  0
  9  8  2  0
 10  8  1  0
 11  9  1  0
 12 10  2  0
 13 11  2  0
 13 12  1  0
 14 13  1  0
 15 14  1  0
 16 15  1  0
 17 16  1  0
 18 17  1  0
 19 18  1  0
 20 19  1  0
M  END
>  <SMILES>  (3) 
NCCCCCOc1ccc(NC2CCCCC2)nn1

>  <scaffold>  (3) 
cyclohexane

$$$$

     RDKit          3D

 22 23  0  0  0  0  0  0  0  0999 V2000
   -0.0000   -0.0000    0.0000 C   0  0  0  0  0  0  0  0  0  0  0  0
    0.0000   -0.0000    1.5279 C   0  0  0  0  0  0  0  0  0  0  0  0
    1.4333    0.0000    2.0570 C   0  0  0  0  0  0  0  0  0  0  0  0
    2.1739    1.2355    1.5477 C   0  0  0  0  0  0  0  0  0  0  0  0
    0.7406    1.2355   -0.5093 C   0  0  0  0  0  0  0  0  0  0  0  0
    2.1950    1.2410    0.0200 C   0  0  0  0  0  0  0  0  0  0  0  0
    2.9297    2.3645   -0.5089 N   0  0  0  0  0  0  0  0  0  0  0  0
    2.3772    3.5066   -0.9615 C   0  0  0  0  0  0  0  0  0  0  0  0
    1.0454    3.6436   -0.9981 N   0  0  0  0  0  0  0  0  0  0  0  0
    3.2239    4.4614   -1.3679 N   0  0  0  0  0  0  0  0  0  0  0  0
    0.6132    4.8012   -1.5150 C   0  0  0  0  0  0  0  0  0  0  0  0
    2.7298    5.5697   -1.8589 C   0  0  0  0  0  0  0  0  0  0  0  0
    1.3877    5.7874   -1.9158 N   0  0  0  0  0  0  0  0  0  0  0  0
   -0.7181    4.8018   -1.5468 O   0  0  0  0  0  0  0  0  0  0  0  0
   -1.3707    5.9336   -2.1191 C   0  0  0  0  0  0  0  0  0  0  0  0
   -1.3929    7.1294   -1.1684 C   0  0  0  0  0  0  0  0  0  0  0  0
    3.5249    6.5154   -2.3138 O   0  0  0  0  0  0  0  0  0  0  0  0
    3.0334    7.7671   -2.8135 C   0  0  0  0  0  0  0  0  0  0  0  0
    2.5983    8.6827   -1.6704 C   0  0  2  0  0  0  0  0  0  0  0  0
    1.8475   10.1453   -2.3612 Cl  0  0  0  0  0  0  0  0  0  0  0  0
    3.7692    9.0655   -0.7666 C   0  0  0  0  0  0  0  0  0  0  0  0
    3.2729    9.9342    0.3881 C   0  0  0  0  0  0  0  0  0  0  0  0
  2  1  1  0
  3  2  1  0
  4  3  1  0
  5  1  1  0
  6  5  1  0
  6  4  1  0
  7  6  1  0
  8  7  1  0
  9  8  2  0
 10  8  1  0
 11  9  1  0
 12 10  2  0
 13 11  2  0
 13 12  1  0
 14 11  1  0
 15 14  1  0
 16 15  1  0
 17 12  1  0
 18 17  1  0
 19 18  1  0
 19 20  1  6
 21 19  1  0
 22 21  1  0
M  END
>  <SMILES>  (4) 
CCOc1nc(NC2CCCCC2)nc(OCC(Cl)CC)n1

>  <scaffold>  (4) 
cyclohexane

$$$$

     RDKit          3D

 20 21  0  0  0  0  0  0  0  0999 V2000
   -0.0000    0.0000    0.0000 C   0  0  0  0  0  0  0  0  0  0  0  0
    0.0000   -0.0000    1.5279 C   0  0  0  0  0  0  0  0  0  0  0  0
    1.4333    0.0000    2.0570 C   0  0  0  0  0  0  0  0  0  0  0  0
    0.7406    1.2355   -0.5093 C   0  0  0  0  0  0  0  0  0  0  0  0
    2.1739    1.2355    1.5477 C   0  0  0  0  0  0  0  0  0  0  0  0
    2.1552    1.3050    0.0637 C   0  0  0  0  0  0  0  0  0  0  0  0
    2.9722    0.2680   -0.5387 N   0  0  0  0  0  0  0  0  0  0  0  0
    4.2927    0.4537   -0.7780 C   0  0  0  0  0  0  0  0  0  0  0  0
    4.8447    1.5301   -0.6627 O   0  0  0  0  0  0  0  0  0  0  0  0
    4.9037   -0.7129   -1.2106 N   0  0  0  0  0  0  0  0  0  0  0  0
    6.2220   -0.8475   -1.5894 C   0  0  0  0  0  0  0  0  0  0  0  0
    6.4913   -2.0916   -2.0061 N   0  0  0  0  0  0  0  0  0  0  0  0
    7.1709    0.1831   -1.5308 C   0  0  0  0  0  0  0  0  0  0  0  0
    7.7362   -2.3520   -2.3460 C   0  0  0  0  0  0  0  0  0  0  0  0
    8.4662   -0.0883   -1.8864 C   0  0  0  0  0  0  0  0  0  0  0  0
    8.7839   -1.4572   -2.3101 C   0  0  0  0  0  0  0  0  0  0  0  0
   10.0879   -1.5901   -2.6822 O   0  0  0  0  0  0  0  0  0  0  0  0
   10.3558   -2.8737   -3.1786 C   0  0  0  0  0  0  0  0  0  0  0  0
   10.3185   -4.0407   -2.1931 C   0  0  0  0  0  0  0  0  0  0  0  0
   10.1567   -5.2022   -2.4536 O   0  0  0  0  0  0  0  0  0  0  0  0
  2  1  1  0
  3  2  1  0
  4  1  1  0
  5  3  1  0
  6  5  1  0
  6  4  1  0
  7  6  1  0
  8  7  1  0
  9  8  2  0
 10  8  1  0
 11 10  1  0
 12 11  2  0
 13 11  1  0
 14 12  1  0
 15 13  1  0
 16 15  1  0
 16 14  2  0
 17 16  1  0
 18 17  1  0
 19 18  1  0
 20 19  2  0
M  END
>  <SMILES>  (5) 
O=CCOC1=CN=C(NC(=O)NC2CCCCC2)CC1

>  <scaffold>  (5) 
cyclohexane

$$$$

     RDKit          3D

 27 28  0  0  0  0  0  0  0  0999 V2000
    0.0000    0.0000   -0.0000 C   0  0  0  0  0  0  0  0  0  0  0  0
    0.0000   -0.0000    1.5279 C   0  0  0  0  0  0  0  0  0  0  0  0
    1.4333    0.0000    2.0570 C   0  0  0  0  0  0  0  0  0  0  0  0
    0.7406   -1.2355   -0.5093 C   0  0  0  0  0  0  0  0  0  0  0  0
    2.1739   -1.2355    1.5477 C   0  0  0  0  0  0  0  0  0  0  0  0
    2.1950   -1.2410    0.0200 C   0  0  0  0  0  0  0  0  0  0  0  0
    3.5194   -1.3069    2.0637 N   0  0  0  0  0  0  0  0  0  0  0  0
    3.9739   -2.2675    2.8788 C   0  0  0  0  0  0  0  0  0  0  0  0
    3.2861   -3.1894    3.2707 O   0  0  0  0  0  0  0  0  0  0  0  0
    5.2965   -2.0723    3.2741 N   0  0  0  0  0  0  0  0  0  0  0  0
    6.0400   -1.0459    2.8906 N   0  0  0  0  0  0  0  0  0  0  0  0
    7.2649   -0.9299    3.2413 C   0  0  0  0  0  0  0  0  0  0  0  0
    8.0304    0.1550    2.7664 C   0  0  0  0  0  0  0  0  0  0  0  0
    9.3501    0.4156    2.9833 C   0  0  0  0  0  0  0  0  0  0  0  0
    7.3886    1.3686    1.7088 S   0  0  0  0  0  0  0  0  0  0  0  0
    9.8174    1.5573    2.3169 C   0  0  0  0  0  0  0  0  0  0  0  0
    8.9010    2.2051    1.5819 C   0  0  0  0  0  0  0  0  0  0  0  0
    9.1377    3.4584    0.8385 C   0  0  0  0  0  0  0  0  0  0  0  0
   10.1939    4.0301    0.8107 O   0  0  0  0  0  0  0  0  0  0  0  0
    8.0219    3.8042    0.2478 O   0  0  0  0  0  0  0  0  0  0  0  0
    8.0332    5.0442   -0.4899 C   0  0  2  0  0  0  0  0  0  0  0  0
    8.1314    6.2445    0.4504 C   0  0  0  0  0  0  0  0  0  0  0  0
    6.7379    5.0731   -1.2831 C   0  0  0  0  0  0  0  0  0  0  0  0
    6.6783    6.2577   -2.2462 C   0  0  0  0  0  0  0  0  0  0  0  0
    5.3839    6.2103   -3.0565 C   0  0  0  0  0  0  0  0  0  0  0  0
    5.2057    7.4486   -3.9336 C   0  0  0  0  0  0  0  0  0  0  0  0
    3.8742    7.3775   -4.6795 C   0  0  0  0  0  0  0  0  0  0  0  0
  2  1  1  0
  3  2  1  0
  4  1  1  0
  5  3  1  0
  6  5  1  0
  6  4  1  0
  7  5  1  0
  8  7  1  0
  9  8  2  0
 10  8  1  0
 11 10  1  0
 12 11  2  0
 13 12  1  0
 14 13  1  0
 15 13  2  0
 16 14  2  0
 17 16  1  0
 17 15  1  0
 18 17  2  0
 19 18  1  0
 20 18  1  0
 21 20  1  0
 21 22  1  1
 23 21  1  0
 24 23  1  0
 25 24  1  0
 26 25  1  0
 27 26  1  0
M  CHG  2  15   1  19  -1
M  END
>  <SMILES>  (6) 
CCCCCC(C)OC([O-])=C1C=CC(C=NNC(=O)NC2CCCCC2)=[S+]1

>  <scaffold>  (6) 
cyclohexane

$$$$

     RDKit          3D

 25 27  0  0  0  0  0  0  0  0999 V2000
    0.0000    0.0000    0.0000 C   0  0  0  0  0  0  0  0  0  0  0  0
   -0.0000    0.0000    1.5279 C   0  0  0  0  0  0  0  0  0  0  0  0
    1.4418   -0.0000    2.0333 C   0  0  0  0  0  0  0  0  0  0  0  0
    2.1824   -1.2355    1.5240 C   0  0  0  0  0  0  0  0  0  0  0  0
    0.7406   -1.2355   -0.5093 C   0  0  0  0  0  0  0  0  0  0  0  0
    2.1810   -1.2355   -0.0000 C   0  0  0  0  0  0  0  0  0  0  0  0
    2.9461   -2.3718   -0.5035 N   0  0  0  0  0  0  0  0  0  0  0  0
    2.6172   -3.6615   -0.2505 C   0  0  0  0  0  0  0  0  0  0  0  0
    1.6681   -4.0114    0.4101 O   0  0  0  0  0  0  0  0  0  0  0  0
    3.5770   -4.4921   -0.8273 N   0  0  0  0  0  0  0  0  0  0  0  0
    3.5638   -5.8861   -0.8352 C   0  0  0  0  0  0  0  0  0  0  0  0
    4.5964   -6.5451   -1.5174 C   0  0  0  0  0  0  0  0  0  0  0  0
    2.5982   -6.6642   -0.1981 C   0  0  0  0  0  0  0  0  0  0  0  0
    4.6516   -7.9065   -1.5108 C   0  0  0  0  0  0  0  0  0  0  0  0
    2.6536   -8.0256   -0.1923 C   0  0  0  0  0  0  0  0  0  0  0  0
    3.7107   -8.7039   -0.8438 C   0  0  0  0  0  0  0  0  0  0  0  0
    3.8334  -10.0530   -0.8245 N   0  0  0  0  0  0  0  0  0  0  0  0
    2.8709  -11.0012   -0.3183 C   0  0  0  0  0  0  0  0  0  0  0  0
    1.6284  -11.1262   -1.1527 C   0  0  0  0  0  0  0  0  0  0  0  0
    0.3498  -10.8449   -0.8043 C   0  0  0  0  0  0  0  0  0  0  0  0
    1.7840  -11.6179   -2.8072 S   0  0  0  0  0  0  0  0  0  0  0  0
   -0.5233  -11.0442   -1.8936 C   0  0  0  0  0  0  0  0  0  0  0  0
    0.0604  -11.4412   -2.9956 C   0  0  0  0  0  0  0  0  0  0  0  0
   -0.5559  -11.7934   -4.3094 C   0  0  0  0  0  0  0  0  0  0  0  0
   -0.5644  -13.3118   -4.4783 C   0  0  0  0  0  0  0  0  0  0  0  0
  2  1  1  0
  3  2  1  0
  4  3  1  0
  5  1  1  0
  6  5  1  0
  6  4  1  0
  7  6  1  0
  8  7  1  0
  9  8  2  0
 10  8  1  0
 11 10  1  0
 12 11  2  0
 13 11  1  0
 14 12  1  0
 15 13  2  0
 16 15  1  0
 16 14  2  0
 17 16  1  0
 18 17  1  0
 19 18  1  0
 20 19  2  0
 21 19  1  0
 22 20  1  0
 23 22  2  0
 23 21  1  0
 24 23  1  0
 25 24  1  0
M  END
>  <SMILES>  (7) 
CCc1ccc(CNc2ccc(NC(=O)NC3CCCCC3)cc2)s1

>  <scaffold>  (7) 
cyclohexane

$$$$

     RDKit          3D

 14 15  0  0  0  0  0  0  0  0999 V2000
   -0.0000   -0.0000    0.0000 C   0  0  0  0  0  0  0  0  0  0  0  0
   -0.0000   -0.0000    1.5279 C   0  0  0  0  0  0  0  0  0  0  0  0
    1.4333    0.0000    2.0570 C   0  0  0  0  0  0  0  0  0  0  0  0
    0.7406    1.2355   -0.5093 C   0  0  0  0  0  0  0  0  0  0  0  0
    2.1893    1.2355    0.0029 C   0  0  0  0  0  0  0  0  0  0  0  0
    2.1994    1.2295    1.5395 C   0  0  0  0  0  0  0  0  0  0  0  0
    2.9750    2.3167   -0.5622 N   0  0  0  0  0  0  0  0  0  0  0  0
    4.0488    2.1535   -1.3850 C   0  0  0  0  0  0  0  0  0  0  0  0
    2.7744    3.6704   -0.3412 C   0  0  0  0  0  0  0  0  0  0  0  0
    4.5123    3.3164   -1.7675 N   0  0  0  0  0  0  0  0  0  0  0  0
    3.7275    4.2421   -1.1295 N   0  0  0  0  0  0  0  0  0  0  0  0
    2.0257    4.3069    0.3497 O   0  0  0  0  0  0  0  0  0  0  0  0
    4.7321    0.6421   -1.8517 S   0  0  0  0  0  0  0  0  0  0  0  0
    6.0612    1.1596   -2.9897 C   0  0  0  0  0  0  0  0  0  0  0  0
  2  1  1  0
  3  2  1  0
  4  1  1  0
  5  4  1  0
  6  5  1  0
  6  3  1  0
  7  5  1  0
  8  7  1  0
  9  7  1  0
 10  8  2  0
 11 10  1  0
 11  9  1  0
 12  9  2  0
 13  8  1  0
 14 13  1  0
M  END
>  <SMILES>  (8) 
CSc1n[nH]c(=O)n1C1CCCCC1

>  <scaffold>  (8) 
cyclohexane

$$$$

     RDKit          3D

 30 32  0  0  0  0  0  0  0  0999 V2000
    0.0000   -0.0000    0.0000 C   0  0  0  0  0  0  0  0  0  0  0  0
    0.0000    0.0000    1.5191 C   0  0  0  0  0  0  0  0  0  0  0  0
    1.4251    0.0000    2.0452 C   0  0  0  0  0  0  0  0  0  0  0  0
    0.7406    1.2355   -0.5093 C   0  0  0  0  0  0  0  0  0  0  0  0
    2.2464    1.2291    1.5945 C   0  0  0  0  0  0  0  0  0  0  0  0
    2.1276    1.3889    0.0884 C   0  0  0  0  0  0  0  0  0  0  0  0
    3.1451    1.5699   -0.6658 N   0  0  0  0  0  0  0  0  0  0  0  0
    3.6840    1.0039    2.0605 C   0  0  0  0  0  0  0  0  0  0  0  0
    1.7069    2.4737    2.3164 C   0  0  0  0  0  0  0  0  0  0  0  0
    4.4315    1.6428   -0.2470 N   0  0  0  0  0  0  0  0  0  0  0  0
    5.4559    1.8801   -1.0641 C   0  0  0  0  0  0  0  0  0  0  0  0
    6.7096    1.8960   -0.6153 N   0  0  0  0  0  0  0  0  0  0  0  0
    5.1529    2.1086   -2.3646 N   0  0  0  0  0  0  0  0  0  0  0  0
    7.7239    2.1660   -1.3595 N   0  0  0  0  0  0  0  0  0  0  0  0
    6.1732    2.3799   -3.1130 C   0  0  0  0  0  0  0  0  0  0  0  0
    7.4715    2.3873   -2.6720 C   0  0  0  0  0  0  0  0  0  0  0  0
    8.5369    2.7076   -3.3900 N   0  0  0  0  0  0  0  0  0  0  0  0
    9.8712    2.8881   -2.8716 C   0  0  0  0  0  0  0  0  0  0  0  0
   10.2373    4.3711   -2.8407 C   0  0  0  0  0  0  0  0  0  0  0  0
    9.3465    5.1673   -1.8883 C   0  0  0  0  0  0  0  0  0  0  0  0
    9.7876    6.6297   -1.8530 C   0  0  0  0  0  0  0  0  0  0  0  0
    8.8404    7.3861   -0.9374 C   0  0  0  0  0  0  0  0  0  0  0  0
    9.2723    8.8473   -0.8247 C   0  0  0  0  0  0  0  0  0  0  0  0
    8.2716    9.5655    0.0495 C   0  0  0  0  0  0  0  0  0  0  0  0
    7.3333   10.4200   -0.4675 C   0  0  0  0  0  0  0  0  0  0  0  0
    8.3586    9.4323    1.4426 C   0  0  0  0  0  0  0  0  0  0  0  0
    6.3985   11.0216    0.3738 C   0  0  0  0  0  0  0  0  0  0  0  0
    7.4542   10.0184    2.2636 C   0  0  0  0  0  0  0  0  0  0  0  0
    6.3671   10.7966    1.7332 C   0  0  0  0  0  0  0  0  0  0  0  0
    5.5570   11.3524    2.6436 O   0  0  0  0  0  0  0  0  0  0  0  0
  2  1  1  0
  3  2  1  0
  4  1  1  0
  5  3  1  0
  6  5  1  0
  6  4  1  0
  7  6  2  0
  8  5  1  0
  9  5  1  0
 10  7  1  0
 11 10  1  0
 12 11  2  0
 13 11  1  0
 14 12  1  0
 15 13  2  0
 16 15  1  0
 16 14  2  0
 17 16  1  0
 18 17  1  0
 19 18  1  0
 20 19  1  0
 21 20  1  0
 22 21  1  0
 23 22  1  0
 24 23  1  0
 25 24  2  0
 26 24  1  0
 27 25  1  0
 28 26  2  0
 29 28  1  0
 29 27  2  0
 30 29  1  0
M  END
>  <SMILES>  (9) 
CC1(C)CCCCC1=NNc1ncc(NCCCCCCc2ccc(O)cc2)nn1

>  <scaffold>  (9) 
cyclohexane

$$$$

     RDKit          3D

 26 28  0  0  0  0  0  0  0  0999 V2000
    0.0000   -0.0000    0.0000 C   0  0  0  0  0  0  0  0  0  0  0  0
   -0.0000   -0.0000    1.5279 C   0  0  0  0  0  0  0  0  0  0  0  0
    1.4333   -0.0000    2.0570 C   0  0  0  0  0  0  0  0  0  0  0  0
    2.1739    1.2355    1.5477 C   0  0  0  0  0  0  0  0  0  0  0  0
    0.7406    1.2355   -0.5093 C   0  0  0  0  0  0  0  0  0  0  0  0
    2.1950    1.2410    0.0200 C   0  0  0  0  0  0  0  0  0  0  0  0
    2.9339    2.3709   -0.5119 N   0  0  0  0  0  0  0  0  0  0  0  0
    4.1779    2.2680   -0.9974 C   0  0  0  0  0  0  0  0  0  0  0  0
    4.7689    1.2328   -1.1464 O   0  0  0  0  0  0  0  0  0  0  0  0
    4.6629    3.4935   -1.2754 O   0  0  0  0  0  0  0  0  0  0  0  0
    5.8843    3.6126   -1.9370 C   0  0  0  0  0  0  0  0  0  0  0  0
    6.2126    2.9053   -3.0830 C   0  0  0  0  0  0  0  0  0  0  0  0
    6.7156    4.6245   -1.4827 C   0  0  0  0  0  0  0  0  0  0  0  0
    7.4147    3.0928   -3.7305 C   0  0  0  0  0  0  0  0  0  0  0  0
    7.9130    4.8118   -2.1390 C   0  0  0  0  0  0  0  0  0  0  0  0
    8.2800    4.0584   -3.2403 C   0  0  0  0  0  0  0  0  0  0  0  0
    9.4996    4.2452   -3.8183 O   0  0  0  0  0  0  0  0  0  0  0  0
    9.9360    3.4886   -4.9151 C   0  0  0  0  0  0  0  0  0  0  0  0
    9.1586    3.7766   -6.1674 C   0  0  0  0  0  0  0  0  0  0  0  0
    8.2856    4.8124   -6.4217 C   0  0  0  0  0  0  0  0  0  0  0  0
    9.3190    3.0247   -7.3399 C   0  0  0  0  0  0  0  0  0  0  0  0
    7.8923    4.6418   -7.7233 N   0  0  0  0  0  0  0  0  0  0  0  0
    8.5535    3.5445   -8.2552 N   0  0  0  0  0  0  0  0  0  0  0  0
    6.9721    5.3857   -8.4604 C   0  0  0  0  0  0  0  0  0  0  0  0
    7.1552    5.4706   -9.8398 C   0  0  0  0  0  0  0  0  0  0  0  0
    5.9095    6.0264   -7.8605 C   0  0  0  0  0  0  0  0  0  0  0  0
  2  1  1  0
  3  2  1  0
  4  3  1  0
  5  1  1  0
  6  5  1  0
  6  4  1  0
  7  6  1  0
  8  7  1  0
  9  8  2  0
 10  8  1  0
 11 10  1  0
 12 11  2  0
 13 11  1  0
 14 12  1  0
 15 13  2  0
 16 15  1  0
 16 14  2  0
 17 16  1  0
 18 17  1  0
 19 18  1  0
 20 19  2  0
 21 19  1  0
 22 20  1  0
 23 22  1  0
 23 21  2  0
 24 22  1  0
 25 24  1  0
 26 24  2  0
M  END
>  <SMILES>  (10) 
C=C(C)n1cc(COc2ccc(OC(=O)NC3CCCCC3)cc2)cn1

>  <scaffold>  (10) 
cyclohexane

$$$$

     RDKit          3D

 25 26  0  0  0  0  0  0  0  0999 V2000
   -0.0000    0.0000    0.0000 C   0  0  0  0  0  0  0  0  0  0  0  0
    0.0000    0.0000    1.5279 C   0  0  0  0  0  0  0  0  0  0  0  0
    1.4333   -0.0000    2.0570 C   0  0  0  0  0  0  0  0  0  0  0  0
    2.1739    1.2355    1.5477 C   0  0  0  0  0  0  0  0  0  0  0  0
    2.1951    1.2410    0.0112 C   0  0  0  0  0  0  0  0  0  0  0  0
    0.7406    1.2355   -0.5093 C   0  0  0  0  0  0  0  0  0  0  0  0
    3.0030    2.3221   -0.5220 N   0  0  0  0  0  0  0  0  0  0  0  0
    2.5129    3.6848   -0.3414 C   0  0  0  0  0  0  0  0  0  0  0  0
    3.5975    4.6678   -0.6365 C   0  0  0  0  0  0  0  0  0  0  0  0
    3.8060    5.3208   -1.8051 C   0  0  0  0  0  0  0  0  0  0  0  0
    4.8455    5.0427    0.5059 S   0  0  0  0  0  0  0  0  0  0  0  0
    4.9605    6.1435   -1.7642 C   0  0  0  0  0  0  0  0  0  0  0  0
    5.6438    6.1228   -0.5891 C   0  0  0  0  0  0  0  0  0  0  0  0
    6.9232    6.8103   -0.2420 C   0  0  0  0  0  0  0  0  0  0  0  0
    8.0575    5.7607   -0.2466 C   0  0  1  0  0  0  0  0  0  0  0  0
    8.4636    5.2959   -1.6442 C   0  0  0  0  0  0  0  0  0  0  0  0
    9.2381    6.4279    0.4762 C   0  0  0  0  0  0  0  0  0  0  0  0
   10.3078    5.3597    0.6977 C   0  0  0  0  0  0  0  0  0  0  0  0
   11.4304    6.0576    1.4639 C   0  0  0  0  0  0  0  0  0  0  0  0
   12.5539    5.0417    1.6640 C   0  0  0  0  0  0  0  0  0  0  0  0
   13.6681    5.8009    2.3827 C   0  0  0  0  0  0  0  0  0  0  0  0
   14.8422    4.8392    2.5587 C   0  0  0  0  0  0  0  0  0  0  0  0
   15.9437    5.6585    3.2294 C   0  0  0  0  0  0  0  0  0  0  0  0
   17.1264    4.7238    3.4781 C   0  0  0  0  0  0  0  0  0  0  0  0
   18.2211    5.6047    4.1002 C   0  0  0  0  0  0  0  0  0  0  0  0
  2  1  1  0
  3  2  1  0
  4  3  1  0
  5  4  1  0
  6  5  1  0
  6  1  1  0
  7  5  1  0
  8  7  1  0
  9  8  1  0
 10  9  2  0
 11  9  1  0
 12 10  1  0
 13 11  1  0
 13 12  2  0
 14 13  1  0
 15 14  1  0
 15 16  1  6
 17 15  1  0
 18 17  1  0
 19 18  1  0
 20 19  1  0
 21 20  1  0
 22 21  1  0
 23 22  1  0
 24 23  1  0
 25 24  1  0
M  END
>  <SMILES>  (11) 
CCCCCCCCCC(C)Cc1ccc(CNC2CCCCC2)s1

>  <scaffold>  (11) 
cyclohexane

$$$$

     RDKit          3D

 25 27  0  0  0  0  0  0  0  0999 V2000
    0.0000    0.0000    0.0000 C   0  0  0  0  0  0  0  0  0  0  0  0
    0.0000    0.0000    1.5279 C   0  0  0  0  0  0  0  0  0  0  0  0
    1.4333    0.0000    2.0570 C   0  0  0  0  0  0  0  0  0  0  0  0
    2.1739   -1.2355    1.5477 C   0  0  0  0  0  0  0  0  0  0  0  0
    2.1951   -1.2410    0.0112 C   0  0  0  0  0  0  0  0  0  0  0  0
    0.7869   -1.1777   -0.5729 C   0  0  0  0  0  0  0  0  0  0  0  0
    3.0019   -0.1803   -0.4974 N   0  0  0  0  0  0  0  0  0  0  0  0
    4.3007   -0.2538   -0.6428 N   0  0  0  0  0  0  0  0  0  0  0  0
    2.5805    1.0341   -0.7818 N   0  0  0  0  0  0  0  0  0  0  0  0
    4.7463    0.8664   -1.0712 N   0  0  0  0  0  0  0  0  0  0  0  0
    3.6803    1.7040   -1.1770 C   0  0  0  0  0  0  0  0  0  0  0  0
    3.7285    3.1322   -1.5473 C   0  0  0  0  0  0  0  0  0  0  0  0
    2.7316    3.8099   -1.6288 O   0  0  0  0  0  0  0  0  0  0  0  0
    4.9734    3.5592   -1.7501 O   0  0  0  0  0  0  0  0  0  0  0  0
    5.2889    4.8451   -2.1607 C   0  0  0  0  0  0  0  0  0  0  0  0
    4.5229    5.5705   -3.0598 C   0  0  0  0  0  0  0  0  0  0  0  0
    6.4865    5.3881   -1.6740 C   0  0  0  0  0  0  0  0  0  0  0  0
    4.9076    6.8426   -3.4810 C   0  0  0  0  0  0  0  0  0  0  0  0
    6.9265    6.6142   -2.0462 C   0  0  0  0  0  0  0  0  0  0  0  0
    6.1058    7.3517   -3.0286 C   0  0  0  0  0  0  0  0  0  0  0  0
    6.5679    8.6146   -3.3307 O   0  0  0  0  0  0  0  0  0  0  0  0
    5.9213    9.5011   -4.2548 C   0  0  1  0  0  0  0  0  0  0  0  0
    6.4297   10.9127   -3.9661 C   0  0  0  0  0  0  0  0  0  0  0  0
    6.1776    9.0605   -5.7044 C   0  0  0  0  0  0  0  0  0  0  0  0
    5.6284   10.0552   -6.7390 C   0  0  0  0  0  0  0  0  0  0  0  0
  2  1  1  0
  3  2  1  0
  4  3  1  0
  5  4  1  0
  6  5  1  0
  6  1  1  0
  7  5  1  0
  8  7  1  0
  9  7  1  0
 10  8  2  0
 11 10  1  0
 11  9  2  0
 12 11  1  0
 13 12  2  0
 14 12  1  0
 15 14  1  0
 16 15  2  0
 17 15  1  0
 18 16  1  0
 19 17  2  0
 20 18  2  0
 20 19  1  0
 21 20  1  0
 22 21  1  0
 22 23  1  6
 24 22  1  0
 25 24  1  0
M  END
>  <SMILES>  (12) 
CCC(C)Oc1ccc(OC(=O)c2nnn(C3CCCCC3)n2)cc1

>  <scaffold>  (12) 
cyclohexane

$$$$

     RDKit          3D

 25 26  0  0  0  0  0  0  0  0999 V2000
    0.0000    0.0000   -0.0000 C   0  0  0  0  0  0  0  0  0  0  0  0
    0.0000   -0.0000    1.5279 C   0  0  0  0  0  0  0  0  0  0  0  0
    1.4333   -0.0000    2.0570 C   0  0  0  0  0  0  0  0  0  0  0  0
    2.1739    1.2355    1.5477 C   0  0  0  0  0  0  0  0  0  0  0  0
    0.7406    1.2355   -0.5093 C   0  0  0  0  0  0  0  0  0  0  0  0
    2.1950    1.2410    0.0200 C   0  0  0  0  0  0  0  0  0  0  0  0
    2.9297    2.3645   -0.5089 N   0  0  0  0  0  0  0  0  0  0  0  0
    4.0745    2.2710   -1.2273 C   0  0  0  0  0  0  0  0  0  0  0  0
    4.5325    1.1840   -1.5189 O   0  0  0  0  0  0  0  0  0  0  0  0
    4.6633    3.4682   -1.6033 N   0  0  0  0  0  0  0  0  0  0  0  0
    5.8210    3.5742   -2.2684 N   0  0  0  0  0  0  0  0  0  0  0  0
    6.3059    4.6996   -2.6358 C   0  0  0  0  0  0  0  0  0  0  0  0
    7.5644    4.8681   -3.3036 C   0  0  0  0  0  0  0  0  0  0  0  0
    8.3864    3.7784   -3.5453 C   0  0  0  0  0  0  0  0  0  0  0  0
    7.9596    6.1444   -3.7018 C   0  0  0  0  0  0  0  0  0  0  0  0
    9.6077    3.9960   -4.1457 C   0  0  0  0  0  0  0  0  0  0  0  0
    9.1604    6.3580   -4.2916 C   0  0  0  0  0  0  0  0  0  0  0  0
   10.0819    5.2573   -4.5335 C   0  0  0  0  0  0  0  0  0  0  0  0
   11.2509    5.5130   -5.1688 N   0  0  0  0  0  0  0  0  0  0  0  0
   12.2110    4.4849   -5.4047 C   0  0  0  0  0  0  0  0  0  0  0  0
   13.3674    5.2083   -6.0734 C   0  0  0  0  0  0  0  0  0  0  0  0
   13.5511    6.3478   -6.3805 O   0  0  0  0  0  0  0  0  0  0  0  0
   14.3065    4.2955   -6.2691 O   0  0  0  0  0  0  0  0  0  0  0  0
   15.4734    4.7781   -6.9498 C   0  0  0  0  0  0  0  0  0  0  0  0
   15.2678    4.7986   -8.4636 C   0  0  0  0  0  0  0  0  0  0  0  0
  2  1  1  0
  3  2  1  0
  4  3  1  0
  5  1  1  0
  6  5  1  0
  6  4  1  0
  7  6  1  0
  8  7  1  0
  9  8  2  0
 10  8  1  0
 11 10  1  0
 12 11  2  0
 13 12  1  0
 14 13  2  0
 15 13  1  0
 16 14  1  0
 17 15  2  0
 18 16  2  0
 18 17  1  0
 19 18  1  0
 20 19  1  0
 21 20  1  0
 22 21  2  0
 23 21  1  0
 24 23  1  0
 25 24  1  0
M  END
>  <SMILES>  (13) 
CCOC(=O)CNc1ccc(C=NNC(=O)NC2CCCCC2)cc1

>  <scaffold>  (13) 
cyclohexane

$$$$

     RDKit          3D

 30 31  0  0  0  0  0  0  0  0999 V2000
   -0.0000   -0.0000    0.0000 C   0  0  0  0  0  0  0  0  0  0  0  0
    0.0000    0.0000    1.5279 C   0  0  0  0  0  0  0  0  0  0  0  0
    1.4333   -0.0000    2.0570 C   0  0  0  0  0  0  0  0  0  0  0  0
    2.2202    1.1777    1.4840 C   0  0  0  0  0  0  0  0  0  0  0  0
    0.7869    1.1777   -0.5729 C   0  0  0  0  0  0  0  0  0  0  0  0
    2.2403    1.0877   -0.0410 C   0  0  0  0  0  0  0  0  0  0  0  0
    3.0129    2.1466   -0.6240 N   0  0  0  0  0  0  0  0  0  0  0  0
    4.1387    1.9174   -1.2514 N   0  0  0  0  0  0  0  0  0  0  0  0
    2.6581    3.4193   -0.5380 N   0  0  0  0  0  0  0  0  0  0  0  0
    4.5606    3.0786   -1.5839 N   0  0  0  0  0  0  0  0  0  0  0  0
    3.6936    3.9706   -1.1683 C   0  0  0  0  0  0  0  0  0  0  0  0
    3.8351    5.3188   -1.3062 N   0  0  0  0  0  0  0  0  0  0  0  0
    3.0363    6.3862   -0.9567 C   0  0  0  0  0  0  0  0  0  0  0  0
    3.3530    7.5279   -1.2265 O   0  0  0  0  0  0  0  0  0  0  0  0
    1.9388    6.0090   -0.3192 O   0  0  0  0  0  0  0  0  0  0  0  0
    0.9906    7.0311    0.0522 C   0  0  2  0  0  0  0  0  0  0  0  0
    1.5705    7.9912    1.0896 C   0  0  0  0  0  0  0  0  0  0  0  0
   -0.2514    6.3394    0.6120 C   0  0  0  0  0  0  0  0  0  0  0  0
   -0.9900    5.4905   -0.4215 C   0  0  0  0  0  0  0  0  0  0  0  0
   -2.1901    4.7786    0.2010 C   0  0  0  0  0  0  0  0  0  0  0  0
   -2.9317    3.8720   -0.7801 C   0  0  0  0  0  0  0  0  0  0  0  0
   -4.0873    3.1435   -0.0958 C   0  0  0  0  0  0  0  0  0  0  0  0
   -4.8285    2.1811   -1.0225 C   0  0  0  0  0  0  0  0  0  0  0  0
   -5.9372    1.4394   -0.2774 C   0  0  0  0  0  0  0  0  0  0  0  0
   -6.7455    0.5030   -1.1741 C   0  0  0  0  0  0  0  0  0  0  0  0
   -7.8031   -0.2535   -0.3719 C   0  0  0  0  0  0  0  0  0  0  0  0
   -8.6038   -1.2453   -1.2143 C   0  0  0  0  0  0  0  0  0  0  0  0
   -9.6082   -2.0130   -0.3563 C   0  0  0  0  0  0  0  0  0  0  0  0
  -10.3465   -3.0323   -1.2379 C   0  0  0  0  0  0  0  0  0  0  0  0
  -11.3265   -3.8658   -0.4138 C   0  0  0  0  0  0  0  0  0  0  0  0
  2  1  1  0
  3  2  1  0
  4  3  1  0
  5  1  1  0
  6  5  1  0
  6  4  1  0
  7  6  1  0
  8  7  1  0
  9  7  1  0
 10  8  2  0
 11 10  1  0
 11  9  2  0
 12 11  1  0
 13 12  1  0
 14 13  2  0
 15 13  1  0
 16 15  1  0
 16 17  1  1
 18 16  1  0
 19 18  1  0
 20 19  1  0
 21 20  1  0
 22 21  1  0
 23 22  1  0
 24 23  1  0
 25 24  1  0
 26 25  1  0
 27 26  1  0
 28 27  1  0
 29 28  1  0
 30 29  1  0
M  END
>  <SMILES>  (14) 
CCCCCCCCCCCCCC(C)OC(=O)Nc1nnn(C2CCCCC2)n1

>  <scaffold>  (14) 
cyclohexane

$$$$

     RDKit          3D

 26 27  0  0  0  0  0  0  0  0999 V2000
    0.0000    0.0000    0.0000 C   0  0  0  0  0  0  0  0  0  0  0  0
   -0.0000    0.0000    1.5279 C   0  0  0  0  0  0  0  0  0  0  0  0
    1.4333    0.0000    2.0570 C   0  0  0  0  0  0  0  0  0  0  0  0
    0.6124   -1.2947   -0.5064 C   0  0  0  0  0  0  0  0  0  0  0  0
    2.2202   -1.1777    1.4840 C   0  0  0  0  0  0  0  0  0  0  0  0
    2.0542   -1.4368    0.0058 C   0  0  0  0  0  0  0  0  0  0  0  0
    2.5116   -2.7734   -0.3258 N   0  0  0  0  0  0  0  0  0  0  0  0
    3.0319   -3.0429   -1.5301 C   0  0  0  0  0  0  0  0  0  0  0  0
    3.4443   -2.2685   -2.3406 O   0  0  0  0  0  0  0  0  0  0  0  0
    3.0769   -4.3928   -1.7104 O   0  0  0  0  0  0  0  0  0  0  0  0
    3.7274   -4.9016   -2.8336 C   0  0  0  0  0  0  0  0  0  0  0  0
    5.0348   -4.5758   -3.1911 C   0  0  0  0  0  0  0  0  0  0  0  0
    3.0676   -5.8566   -3.5620 C   0  0  0  0  0  0  0  0  0  0  0  0
    5.6498   -5.1393   -4.2783 C   0  0  0  0  0  0  0  0  0  0  0  0
    3.6915   -6.4242   -4.6520 C   0  0  0  0  0  0  0  0  0  0  0  0
    4.9502   -6.1056   -4.9997 C   0  0  0  0  0  0  0  0  0  0  0  0
    5.5023   -6.6579   -6.1162 N   0  0  0  0  0  0  0  0  0  0  0  0
    6.7479   -6.3673   -6.7840 C   0  0  0  0  0  0  0  0  0  0  0  0
    7.0032   -7.2726   -7.9770 C   0  0  0  0  0  0  0  0  0  0  0  0
    5.9377   -7.0795   -9.0549 C   0  0  0  0  0  0  0  0  0  0  0  0
    6.1613   -8.1098  -10.1607 C   0  0  0  0  0  0  0  0  0  0  0  0
    5.0859   -7.9941  -11.2397 C   0  0  0  0  0  0  0  0  0  0  0  0
    5.3225   -9.0779  -12.2903 C   0  0  0  0  0  0  0  0  0  0  0  0
    4.3030   -8.9705  -13.4231 C   0  0  0  0  0  0  0  0  0  0  0  0
    4.6158  -10.0381  -14.4703 C   0  0  0  0  0  0  0  0  0  0  0  0
    3.6550   -9.9373  -15.6540 C   0  0  0  0  0  0  0  0  0  0  0  0
  2  1  1  0
  3  2  1  0
  4  1  1  0
  5  3  1  0
  6  5  1  0
  6  4  1  0
  7  6  1  0
  8  7  1  0
  9  8  2  0
 10  8  1  0
 11 10  1  0
 12 11  2  0
 13 11  1  0
 14 12  1  0
 15 13  2  0
 16 15  1  0
 16 14  2  0
 17 16  1  0
 18 17  1  0
 19 18  1  0
 20 19  1  0
 21 20  1  0
 22 21  1  0
 23 22  1  0
 24 23  1  0
 25 24  1  0
 26 25  1  0
M  END
>  <SMILES>  (15) 
CCCCCCCCCNc1ccc(OC(=O)NC2CCCCC2)cc1

>  <scaffold>  (15) 
cyclohexane

$$$$

     RDKit          3D

 26 27  0  0  0  0  0  0  0  0999 V2000
    0.0000    0.0000    0.0000 C   0  0  0  0  0  0  0  0  0  0  0  0
   -0.0000   -0.0000    1.5279 C   0  0  0  0  0  0  0  0  0  0  0  0
    1.4333   -0.0000    2.0570 C   0  0  0  0  0  0  0  0  0  0  0  0
    0.7406   -1.2355   -0.5093 C   0  0  0  0  0  0  0  0  0  0  0  0
    2.1810   -1.2355   -0.0000 C   0  0  0  0  0  0  0  0  0  0  0  0
    2.2202   -1.1777    1.4840 C   0  0  0  0  0  0  0  0  0  0  0  0
    2.9418   -2.3654   -0.5006 N   0  0  0  0  0  0  0  0  0  0  0  0
    4.0120   -2.2744   -1.3262 C   0  0  0  0  0  0  0  0  0  0  0  0
    4.4436   -1.1751   -1.6668 O   0  0  0  0  0  0  0  0  0  0  0  0
    4.6149   -3.5570   -1.7689 C   0  0  0  0  0  0  0  0  0  0  0  0
    3.8956   -4.7461   -1.8791 C   0  0  0  0  0  0  0  0  0  0  0  0
    5.9463   -3.5176   -2.1802 C   0  0  0  0  0  0  0  0  0  0  0  0
    4.5591   -5.8663   -2.3549 C   0  0  0  0  0  0  0  0  0  0  0  0
    6.5957   -4.6249   -2.6600 C   0  0  0  0  0  0  0  0  0  0  0  0
    5.9005   -5.8933   -2.7340 C   0  0  0  0  0  0  0  0  0  0  0  0
    6.6139   -6.9911   -3.1646 N   0  0  0  0  0  0  0  0  0  0  0  0
    6.1315   -8.2749   -3.3017 C   0  0  0  0  0  0  0  0  0  0  0  0
    5.0146   -8.6517   -3.0704 O   0  0  0  0  0  0  0  0  0  0  0  0
    7.1418   -8.9920   -3.7900 O   0  0  0  0  0  0  0  0  0  0  0  0
    6.8145  -10.3710   -4.0599 C   0  0  2  0  0  0  0  0  0  0  0  0
    6.6135  -11.1740   -2.7757 C   0  0  0  0  0  0  0  0  0  0  0  0
    7.9852  -10.8379   -4.9236 C   0  0  0  0  0  0  0  0  0  0  0  0
    8.0803  -10.1906   -6.3043 C   0  0  0  0  0  0  0  0  0  0  0  0
    9.2972  -10.6506   -7.1056 C   0  0  0  0  0  0  0  0  0  0  0  0
    9.4692   -9.9874   -8.4810 C   0  0  0  0  0  0  0  0  0  0  0  0
   10.7216  -10.4385   -9.2131 C   0  0  0  0  0  0  0  0  0  0  0  0
  2  1  1  0
  3  2  1  0
  4  1  1  0
  5  4  1  0
  6  5  1  0
  6  3  1  0
  7  5  1  0
  8  7  1  0
  9  8  2  0
 10  8  1  0
 11 10  2  0
 12 10  1  0
 13 11  1  0
 14 12  2  0
 15 13  2  0
 15 14  1  0
 16 15  1  0
 17 16  1  0
 18 17  2  0
 19 17  1  0
 20 19  1  0
 20 21  1  1
 22 20  1  0
 23 22  1  0
 24 23  1  0
 25 24  1  0
 26 25  1  0
M  END
>  <SMILES>  (16) 
CCCCCC(C)OC(=O)Nc1ccc(C(=O)NC2CCCCC2)cc1

>  <scaffold>  (16) 
cyclohexane

$$$$

     RDKit          3D

 21 22  0  0  0  0  0  0  0  0999 V2000
   -0.0000    0.0000   -0.0000 C   0  0  0  0  0  0  0  0  0  0  0  0
    0.0000    0.0000    1.5279 C   0  0  0  0  0  0  0  0  0  0  0  0
    1.4244   -0.0000    2.0805 C   0  0  0  0  0  0  0  0  0  0  0  0
    2.2113    1.1777    1.5075 C   0  0  0  0  0  0  0  0  0  0  0  0
    0.7869    1.1777   -0.5729 C   0  0  0  0  0  0  0  0  0  0  0  0
    2.1892    1.1513   -0.0287 C   0  0  0  0  0  0  0  0  0  0  0  0
    3.5888    1.1908    1.9638 N   0  0  0  0  0  0  0  0  0  0  0  0
    4.1284    2.1381    2.7285 C   0  0  0  0  0  0  0  0  0  0  0  0
    3.5705    3.1421    3.1032 O   0  0  0  0  0  0  0  0  0  0  0  0
    5.4560    1.9456    3.1079 N   0  0  0  0  0  0  0  0  0  0  0  0
    6.1248    0.8716    2.7175 N   0  0  0  0  0  0  0  0  0  0  0  0
    7.3129    0.7143    3.1218 C   0  0  0  0  0  0  0  0  0  0  0  0
    8.1042   -0.4191    2.6802 C   0  0  0  0  0  0  0  0  0  0  0  0
    9.3424   -0.4510    3.1265 N   0  0  0  0  0  0  0  0  0  0  0  0
    7.6324   -1.4374    1.8532 C   0  0  0  0  0  0  0  0  0  0  0  0
   10.1785   -1.4155    2.7472 C   0  0  0  0  0  0  0  0  0  0  0  0
    8.4977   -2.4351    1.4591 C   0  0  0  0  0  0  0  0  0  0  0  0
    9.7916   -2.4208    1.8748 C   0  0  0  0  0  0  0  0  0  0  0  0
   11.5607   -1.3030    3.2775 C   0  0  0  0  0  0  0  0  0  0  0  0
   12.4484   -2.0616    2.9953 O   0  0  0  0  0  0  0  0  0  0  0  0
   11.7179   -0.2573    4.0996 O   0  0  0  0  0  0  0  0  0  0  0  0
  2  1  1  0
  3  2  1  0
  4  3  1  0
  5  1  1  0
  6  5  1  0
  6  4  1  0
  7  4  1  0
  8  7  1  0
  9  8  2  0
 10  8  1  0
 11 10  1  0
 12 11  2  0
 13 12  1  0
 14 13  2  0
 15 13  1  0
 16 14  1  0
 17 15  2  0
 18 17  1  0
 18 16  2  0
 19 16  1  0
 20 19  2  0
 21 19  1  0
M  END
>  <SMILES>  (17) 
O=C(NN=Cc1cccc(C(=O)O)n1)NC1CCCCC1

>  <scaffold>  (17) 
cyclohexane

$$$$

     RDKit          3D

 27 30  0  0  0  0  0  0  0  0999 V2000
    0.0000   -0.0000   -0.0000 C   0  0  0  0  0  0  0  0  0  0  0  0
   -0.0000   -0.0000    1.5279 C   0  0  0  0  0  0  0  0  0  0  0  0
    1.4333   -0.0000    2.0570 C   0  0  0  0  0  0  0  0  0  0  0  0
    0.7406    1.2355   -0.5093 C   0  0  0  0  0  0  0  0  0  0  0  0
    2.1739    1.2355    1.5477 C   0  0  0  0  0  0  0  0  0  0  0  0
    2.1950    1.2410    0.0200 C   0  0  0  0  0  0  0  0  0  0  0  0
    2.9297    2.3645   -0.5089 N   0  0  0  0  0  0  0  0  0  0  0  0
    4.0012    2.2778   -1.3461 C   0  0  0  0  0  0  0  0  0  0  0  0
    2.7112    3.6898   -0.2801 C   0  0  0  0  0  0  0  0  0  0  0  0
    4.4805    3.4674   -1.6080 N   0  0  0  0  0  0  0  0  0  0  0  0
    3.6736    4.3792   -0.9387 C   0  0  0  0  0  0  0  0  0  0  0  0
    4.4091    1.0965   -1.7836 O   0  0  0  0  0  0  0  0  0  0  0  0
    5.5056    0.7999   -2.5919 C   0  0  0  0  0  0  0  0  0  0  0  0
    6.3190    1.7927   -3.1156 C   0  0  0  0  0  0  0  0  0  0  0  0
    5.8053   -0.5253   -2.9041 C   0  0  0  0  0  0  0  0  0  0  0  0
    7.3397    1.3771   -3.9432 C   0  0  0  0  0  0  0  0  0  0  0  0
    6.8254   -0.9404   -3.7327 C   0  0  0  0  0  0  0  0  0  0  0  0
    7.6105    0.0448   -4.2136 C   0  0  0  0  0  0  0  0  0  0  0  0
    8.6305   -0.4113   -4.9799 O   0  0  0  0  0  0  0  0  0  0  0  0
    9.2758    0.4400   -5.8631 C   0  0  0  0  0  0  0  0  0  0  0  0
    8.5994    1.2778   -6.7487 C   0  0  0  0  0  0  0  0  0  0  0  0
   10.6536    0.3108   -5.9436 C   0  0  0  0  0  0  0  0  0  0  0  0
    9.2885    2.0760   -7.6483 C   0  0  0  0  0  0  0  0  0  0  0  0
   11.3328    1.1024   -6.8446 C   0  0  0  0  0  0  0  0  0  0  0  0
   10.6790    1.9871   -7.6971 C   0  0  0  0  0  0  0  0  0  0  0  0
   11.4512    2.6717   -8.5628 O   0  0  0  0  0  0  0  0  0  0  0  0
   10.8383    3.6199   -9.3942 C   0  0  0  0  0  0  0  0  0  0  0  0
  2  1  1  0
  3  2  1  0
  4  1  1  0
  5  3  1  0
  6  5  1  0
  6  4  1  0
  7  6  1  0
  8  7  1  0
  9  7  1  0
 10  8  2  0
 11 10  1  0
 11  9  2  0
 12  8  1  0
 13 12  1  0
 14 13  2  0
 15 13  1  0
 16 14  1  0
 17 15  2  0
 18 17  1  0
 18 16  2  0
 19 18  1  0
 20 19  1  0
 21 20  2  0
 22 20  1  0
 23 21  1  0
 24 22  2  0
 25 23  2  0
 25 24  1  0
 26 25  1  0
 27 26  1  0
M  END
>  <SMILES>  (18) 
COc1ccc(Oc2ccc(Oc3nccn3C3CCCCC3)cc2)cc1

>  <scaffold>  (18) 
cyclohexane

$$$$

     RDKit          3D

 35 37  0  0  0  0  0  0  0  0999 V2000
    0.0000   -0.0000   -0.0000 C   0  0  0  0  0  0  0  0  0  0  0  0
    0.0000    0.0000    1.5279 C   0  0  0  0  0  0  0  0  0  0  0  0
    1.4333    0.0000    2.0570 C   0  0  0  0  0  0  0  0  0  0  0  0
    2.1739    1.2355    1.5477 C   0  0  0  0  0  0  0  0  0  0  0  0
    2.1950    1.2410    0.0200 C   0  0  0  0  0  0  0  0  0  0  0  0
    0.7869    1.1777   -0.5729 C   0  0  0  0  0  0  0  0  0  0  0  0
    3.5117    1.3065    2.0608 N   0  0  0  0  0  0  0  0  0  0  0  0
    4.5857    0.5687    1.6623 C   0  0  0  0  0  0  0  0  0  0  0  0
    3.8973    2.0564    3.1014 N   0  0  0  0  0  0  0  0  0  0  0  0
    5.5764    0.9171    2.4186 N   0  0  0  0  0  0  0  0  0  0  0  0
    5.1262    1.8318    3.2987 N   0  0  0  0  0  0  0  0  0  0  0  0
    4.5397   -0.3141    0.6562 O   0  0  0  0  0  0  0  0  0  0  0  0
    5.5841   -1.1167    0.2505 C   0  0  0  0  0  0  0  0  0  0  0  0
    5.3885   -1.8219   -0.7021 O   0  0  0  0  0  0  0  0  0  0  0  0
    6.8213   -1.0835    1.0706 C   0  0  2  0  0  0  0  0  0  0  0  0
    7.9683   -0.5134    0.5407 C   0  0  0  0  0  0  0  0  0  0  0  0
    6.7915   -1.6631    2.3381 C   0  0  0  0  0  0  0  0  0  0  0  0
    9.1664   -0.5038    1.2535 C   0  0  0  0  0  0  0  0  0  0  0  0
    7.9831   -1.6517    3.0463 C   0  0  0  0  0  0  0  0  0  0  0  0
    9.1819   -1.0325    2.5520 C   0  0  0  0  0  0  0  0  0  0  0  0
   10.3360    0.0037    0.7512 N   0  0  0  0  0  0  0  0  0  0  0  0
   10.5462    0.2135   -0.6692 C   0  0  0  0  0  0  0  0  0  0  0  0
   10.6261   -1.0863   -1.4513 C   0  0  0  0  0  0  0  0  0  0  0  0
   11.8233   -1.9257   -1.0079 C   0  0  0  0  0  0  0  0  0  0  0  0
   11.8269   -3.2419   -1.7838 C   0  0  0  0  0  0  0  0  0  0  0  0
   12.9768   -4.1431   -1.3368 C   0  0  0  0  0  0  0  0  0  0  0  0
   12.9034   -5.4638   -2.1015 C   0  0  0  0  0  0  0  0  0  0  0  0
   14.1078   -6.3084   -1.6575 C   0  0  0  0  0  0  0  0  0  0  0  0
   14.0503   -7.6663   -2.3555 C   0  0  0  0  0  0  0  0  0  0  0  0
   15.2930   -8.4433   -1.9242 C   0  0  0  0  0  0  0  0  0  0  0  0
   15.2552   -9.8346   -2.5546 C   0  0  0  0  0  0  0  0  0  0  0  0
   16.4860  -10.5864   -2.0505 C   0  0  0  0  0  0  0  0  0  0  0  0
   16.4304  -11.9441   -2.7491 C   0  0  0  0  0  0  0  0  0  0  0  0
   17.6027  -12.7494   -2.2405 C   0  0  0  0  0  0  0  0  0  0  0  0
   17.4705  -14.1093   -2.9244 C   0  0  0  0  0  0  0  0  0  0  0  0
  2  1  1  0
  3  2  1  0
  4  3  1  0
  5  4  1  0
  6  5  1  0
  6  1  1  0
  7  4  1  0
  8  7  1  0
  9  7  1  0
 10  8  2  0
 11  9  2  0
 11 10  1  0
 12  8  1  0
 13 12  1  0
 14 13  2  0
 15 13  1  1
 16 15  1  0
 17 15  1  0
 18 16  1  0
 19 17  2  0
 20 19  1  0
 20 18  2  0
 21 18  1  0
 22 21  1  0
 23 22  1  0
 24 23  1  0
 25 24  1  0
 26 25  1  0
 27 26  1  0
 28 27  1  0
 29 28  1  0
 30 29  1  0
 31 30  1  0
 32 31  1  0
 33 32  1  0
 34 33  1  0
 35 34  1  0
M  END
>  <SMILES>  (19) 
CCCCCCCCCCCCCCNC1=CC=CC(C(=O)Oc2nnnn2C2CCCCC2)C1

>  <scaffold>  (19) 
cyclohexane

$$$$

     RDKit          3D

 20 22  0  0  0  0  0  0  0  0999 V2000
   -0.0000    0.0000    0.0000 C   0  0  0  0  0  0  0  0  0  0  0  0
   -0.0000    0.0000    1.5279 C   0  0  0  0  0  0  0  0  0  0  0  0
    1.4333    0.0000    2.0570 C   0  0  0  0  0  0  0  0  0  0  0  0
    2.1739   -1.2355    1.5477 C   0  0  0  0  0  0  0  0  0  0  0  0
    0.7406   -1.2355   -0.5093 C   0  0  0  0  0  0  0  0  0  0  0  0
    2.1810   -1.2355   -0.0000 C   0  0  0  0  0  0  0  0  0  0  0  0
    2.9374   -2.3589   -0.4977 N   0  0  0  0  0  0  0  0  0  0  0  0
    2.6809   -3.6798   -0.2831 C   0  0  0  0  0  0  0  0  0  0  0  0
    4.0555   -2.3247   -1.2757 C   0  0  0  0  0  0  0  0  0  0  0  0
    3.5531   -4.4060   -0.9354 N   0  0  0  0  0  0  0  0  0  0  0  0
    4.4276   -3.5296   -1.5665 N   0  0  0  0  0  0  0  0  0  0  0  0
    1.7094   -4.1118    0.4804 O   0  0  0  0  0  0  0  0  0  0  0  0
    1.4444   -5.4260    0.7643 C   0  0  0  0  0  0  0  0  0  0  0  0
    0.4252   -5.6047    1.6147 N   0  0  0  0  0  0  0  0  0  0  0  0
    2.1298   -6.5071    0.2326 C   0  0  0  0  0  0  0  0  0  0  0  0
    0.0637   -6.7891    2.0389 C   0  0  0  0  0  0  0  0  0  0  0  0
    1.7515   -7.7543    0.6809 C   0  0  0  0  0  0  0  0  0  0  0  0
    0.7441   -7.9274    1.6088 C   0  0  0  0  0  0  0  0  0  0  0  0
    0.1951   -9.2178    2.1220 C   0  0  0  0  0  0  0  0  0  0  0  0
   -0.9677   -9.4467    2.3570 O   0  0  0  0  0  0  0  0  0  0  0  0
  2  1  1  0
  3  2  1  0
  4  3  1  0
  5  1  1  0
  6  5  1  0
  6  4  1  0
  7  6  1  0
  8  7  1  0
  9  7  1  0
 10  8  2  0
 11 10  1  0
 11  9  2  0
 12  8  1  0
 13 12  1  0
 14 13  2  0
 15 13  1  0
 16 14  1  0
 17 15  2  0
 18 17  1  0
 18 16  2  0
 19 18  1  0
 20 19  2  0
M  END
>  <SMILES>  (20) 
O=Cc1ccc(Oc2nncn2C2CCCCC2)nc1

>  <scaffold>  (20) 
cyclohexane

$$$$

     RDKit          3D

 23 24  0  0  0  0  0  0  0  0999 V2000
    0.0000   -0.0000    0.0000 C   0  0  0  0  0  0  0  0  0  0  0  0
    0.0000   -0.0000    1.5279 C   0  0  0  0  0  0  0  0  0  0  0  0
    1.4333   -0.0000    2.0570 C   0  0  0  0  0  0  0  0  0  0  0  0
    0.7406    1.2355   -0.5093 C   0  0  0  0  0  0  0  0  0  0  0  0
    2.1739    1.2355    1.5477 C   0  0  0  0  0  0  0  0  0  0  0  0
    2.1810    1.2355    0.0000 C   0  0  0  0  0  0  0  0  0  0  0  0
    2.9418    2.3654   -0.5006 N   0  0  0  0  0  0  0  0  0  0  0  0
    4.0120    2.2744   -1.3262 C   0  0  0  0  0  0  0  0  0  0  0  0
    4.4413    1.2277   -1.7303 O   0  0  0  0  0  0  0  0  0  0  0  0
    4.5919    3.5005   -1.6122 N   0  0  0  0  0  0  0  0  0  0  0  0
    5.7161    3.8191   -2.3579 C   0  0  0  0  0  0  0  0  0  0  0  0
    6.1751    5.1207   -2.4867 C   0  0  0  0  0  0  0  0  0  0  0  0
    6.4177    2.8088   -3.0142 C   0  0  0  0  0  0  0  0  0  0  0  0
    7.2631    5.4932   -3.2605 C   0  0  0  0  0  0  0  0  0  0  0  0
    7.4997    3.1795   -3.7833 C   0  0  0  0  0  0  0  0  0  0  0  0
    7.9453    4.5073   -3.9562 C   0  0  0  0  0  0  0  0  0  0  0  0
    8.3975    1.9392   -4.6975 S   0  0  0  0  0  0  0  0  0  0  0  0
    7.8868    0.3185   -4.0046 C   0  0  0  0  0  0  0  0  0  0  0  0
    8.9826    4.7535   -4.7796 O   0  0  0  0  0  0  0  0  0  0  0  0
    9.4130    6.0847   -4.9563 C   0  0  0  0  0  0  0  0  0  0  0  0
    8.8554   -0.7937   -4.3690 C   0  0  0  0  0  0  0  0  0  0  0  0
    8.6066   -1.6833   -5.1584 O   0  0  0  0  0  0  0  0  0  0  0  0
   10.0670   -0.6747   -3.7924 N   0  0  0  0  0  0  0  0  0  0  0  0
  2  1  1  0
  3  2  1  0
  4  1  1  0
  5  3  1  0
  6  5  1  0
  6  4  1  0
  7  6  1  0
  8  7  1  0
  9  8  2  0
 10  8  1  0
 11 10  1  0
 12 11  2  0
 13 11  1  0
 14 12  1  0
 15 13  2  0
 16 15  1  0
 16 14  2  0
 17 15  1  0
 18 17  1  0
 19 16  1  0
 20 19  1  0
 21 18  1  0
 22 21  2  0
 23 21  1  0
M  END
>  <SMILES>  (21) 
COc1ccc(NC(=O)NC2CCCCC2)cc1SCC(N)=O

>  <scaffold>  (21) 
cyclohexane

$$$$

     RDKit          3D

 18 19  0  0  0  0  0  0  0  0999 V2000
    0.0000    0.0000    0.0000 C   0  0  0  0  0  0  0  0  0  0  0  0
    0.0000    0.0000    1.5279 C   0  0  0  0  0  0  0  0  0  0  0  0
    1.4333    0.0000    2.0570 C   0  0  0  0  0  0  0  0  0  0  0  0
    0.7869   -1.1777   -0.5729 C   0  0  0  0  0  0  0  0  0  0  0  0
    2.2202   -1.1777    1.4840 C   0  0  0  0  0  0  0  0  0  0  0  0
    2.2403   -1.0877   -0.0410 C   0  0  0  0  0  0  0  0  0  0  0  0
    3.0890   -2.1074   -0.6289 N   0  0  0  0  0  0  0  0  0  0  0  0
    4.0777   -1.8241   -1.4988 C   0  0  0  0  0  0  0  0  0  0  0  0
    4.2938   -0.6957   -1.8944 O   0  0  0  0  0  0  0  0  0  0  0  0
    4.8695   -3.0107   -1.9402 C   0  0  0  0  0  0  0  0  0  0  0  0
    5.0411   -4.1159   -1.1213 C   0  0  0  0  0  0  0  0  0  0  0  0
    5.4448   -2.9875   -3.2098 C   0  0  0  0  0  0  0  0  0  0  0  0
    5.8407   -5.1311   -1.6226 C   0  0  0  0  0  0  0  0  0  0  0  0
    6.2401   -3.9969   -3.7081 C   0  0  0  0  0  0  0  0  0  0  0  0
    6.4792   -5.1467   -2.8529 C   0  0  0  0  0  0  0  0  0  0  0  0
    7.2328   -6.0891   -3.4688 O   0  0  0  0  0  0  0  0  0  0  0  0
    6.7327   -3.9534   -4.9528 F   0  0  0  0  0  0  0  0  0  0  0  0
    7.4239   -7.2776   -2.7655 C   0  0  0  0  0  0  0  0  0  0  0  0
  2  1  1  0
  3  2  1  0
  4  1  1  0
  5  3  1  0
  6  5  1  0
  6  4  1  0
  7  6  1  0
  8  7  1  0
  9  8  2  0
 10  8  1  0
 11 10  2  0
 12 10  1  0
 13 11  1  0
 14 12  2  0
 15 14  1  0
 15 13  2  0
 16 15  1  0
 17 14  1  0
 18 16  1  0
M  END
>  <SMILES>  (22) 
COc1ccc(C(=O)NC2CCCCC2)cc1F

>  <scaffold>  (22) 
cyclohexane

$$$$

     RDKit          3D

 30 31  0  0  0  0  0  0  0  0999 V2000
    0.0000    0.0000   -0.0000 C   0  0  0  0  0  0  0  0  0  0  0  0
   -0.0000   -0.0000    1.5279 C   0  0  0  0  0  0  0  0  0  0  0  0
    1.4333    0.0000    2.0570 C   0  0  0  0  0  0  0  0  0  0  0  0
    2.1739   -1.2355    1.5477 C   0  0  0  0  0  0  0  0  0  0  0  0
    0.7406   -1.2355   -0.5093 C   0  0  0  0  0  0  0  0  0  0  0  0
    2.1950   -1.2410    0.0200 C   0  0  0  0  0  0  0  0  0  0  0  0
    2.9297   -2.3645   -0.5089 N   0  0  0  0  0  0  0  0  0  0  0  0
    4.0745   -2.2710   -1.2273 C   0  0  0  0  0  0  0  0  0  0  0  0
    4.6029   -1.2116   -1.5008 O   0  0  0  0  0  0  0  0  0  0  0  0
    4.6393   -3.5404   -1.7262 C   0  0  0  0  0  0  0  0  0  0  0  0
    5.8046   -3.7240   -2.4235 C   0  0  0  0  0  0  0  0  0  0  0  0
    3.8638   -5.0436   -1.3975 S   0  0  0  0  0  0  0  0  0  0  0  0
    6.0784   -5.0070   -2.8195 C   0  0  0  0  0  0  0  0  0  0  0  0
    5.0745   -5.8163   -2.3315 C   0  0  0  0  0  0  0  0  0  0  0  0
    7.1272   -5.4399   -3.5598 F   0  0  0  0  0  0  0  0  0  0  0  0
    5.0328   -7.2980   -2.5732 C   0  0  1  0  0  0  0  0  0  0  0  0
    6.3552   -7.8158   -2.7063 O   0  0  0  0  0  0  0  0  0  0  0  0
    4.3455   -8.0541   -1.4373 C   0  0  0  0  0  0  0  0  0  0  0  0
    4.2808   -9.5468   -1.7565 C   0  0  0  0  0  0  0  0  0  0  0  0
    3.5523  -10.3419   -0.6741 C   0  0  0  0  0  0  0  0  0  0  0  0
    3.4675  -11.8161   -1.0663 C   0  0  0  0  0  0  0  0  0  0  0  0
    2.6984  -12.6467   -0.0402 C   0  0  0  0  0  0  0  0  0  0  0  0
    2.5380  -14.1196   -0.4131 C   0  0  0  0  0  0  0  0  0  0  0  0
    1.7211  -14.8883    0.6114 C   0  0  0  0  0  0  0  0  0  0  0  0
    1.5774  -16.3797    0.3123 C   0  0  0  0  0  0  0  0  0  0  0  0
    0.7033  -17.0951    1.3412 C   0  0  0  0  0  0  0  0  0  0  0  0
    0.5724  -18.6008    1.1176 C   0  0  0  0  0  0  0  0  0  0  0  0
   -0.2653  -19.2759    2.2025 C   0  0  0  0  0  0  0  0  0  0  0  0
   -0.3812  -20.7922    2.0547 C   0  0  0  0  0  0  0  0  0  0  0  0
   -1.1817  -21.4239    3.1926 C   0  0  0  0  0  0  0  0  0  0  0  0
  2  1  1  0
  3  2  1  0
  4  3  1  0
  5  1  1  0
  6  5  1  0
  6  4  1  0
  7  6  1  0
  8  7  1  0
  9  8  2  0
 10  8  1  0
 11 10  2  0
 12 10  1  0
 13 11  1  0
 14 12  1  0
 14 13  2  0
 15 13  1  0
 16 14  1  0
 16 17  1  1
 18 16  1  0
 19 18  1  0
 20 19  1  0
 21 20  1  0
 22 21  1  0
 23 22  1  0
 24 23  1  0
 25 24  1  0
 26 25  1  0
 27 26  1  0
 28 27  1  0
 29 28  1  0
 30 29  1  0
M  END
>  <SMILES>  (23) 
CCCCCCCCCCCCCC(O)c1sc(C(=O)NC2CCCCC2)cc1F

>  <scaffold>  (23) 
cyclohexane

$$$$

     RDKit          3D

 25 27  0  0  0  0  0  0  0  0999 V2000
    0.0000   -0.0000    0.0000 C   0  0  0  0  0  0  0  0  0  0  0  0
    0.0000    0.0000    1.5279 C   0  0  0  0  0  0  0  0  0  0  0  0
    1.4333   -0.0000    2.0570 C   0  0  0  0  0  0  0  0  0  0  0  0
    2.1739    1.2355    1.5477 C   0  0  0  0  0  0  0  0  0  0  0  0
    0.7406    1.2355   -0.5093 C   0  0  0  0  0  0  0  0  0  0  0  0
    2.1950    1.2410    0.0200 C   0  0  0  0  0  0  0  0  0  0  0  0
    2.8439    2.4244   -0.5130 N   0  0  0  0  0  0  0  0  0  0  0  0
    4.1618    2.5459   -0.6608 C   0  0  0  0  0  0  0  0  0  0  0  0
    4.5837    3.7387   -1.1231 N   0  0  0  0  0  0  0  0  0  0  0  0
    4.9784    1.5526   -0.3785 N   0  0  0  0  0  0  0  0  0  0  0  0
    5.9053    3.9646   -1.3654 C   0  0  0  0  0  0  0  0  0  0  0  0
    6.3002    1.7050   -0.5891 C   0  0  0  0  0  0  0  0  0  0  0  0
    6.8147    2.9803   -1.0788 C   0  0  0  0  0  0  0  0  0  0  0  0
    7.0342    0.6483   -0.2170 N   0  0  0  0  0  0  0  0  0  0  0  0
    6.2202    5.2629   -1.9105 C   0  0  0  0  0  0  0  0  0  0  0  0
    5.1687    6.1353   -2.0164 O   0  0  0  0  0  0  0  0  0  0  0  0
    7.4326    5.7802   -2.3131 C   0  0  0  0  0  0  0  0  0  0  0  0
    5.7125    7.2498   -2.5996 C   0  0  0  0  0  0  0  0  0  0  0  0
    7.0984    7.0454   -2.7937 C   0  0  0  0  0  0  0  0  0  0  0  0
    4.6232    8.5165   -2.9318 Cl  0  0  0  0  0  0  0  0  0  0  0  0
    7.9241    7.9305   -3.3489 O   0  0  0  0  0  0  0  0  0  0  0  0
    7.4662    9.2197   -3.7526 C   0  0  0  0  0  0  0  0  0  0  0  0
    7.2796   10.1467   -2.5525 C   0  0  0  0  0  0  0  0  0  0  0  0
    6.8423   11.5264   -3.0419 C   0  0  0  0  0  0  0  0  0  0  0  0
    6.6944   12.5086   -1.8810 C   0  0  0  0  0  0  0  0  0  0  0  0
  2  1  1  0
  3  2  1  0
  4  3  1  0
  5  1  1  0
  6  5  1  0
  6  4  1  0
  7  6  1  0
  8  7  2  0
  9  8  1  0
 10  8  1  0
 11  9  1  0
 12 10  2  0
 13 12  1  0
 13 11  2  0
 14 12  1  0
 15 11  1  0
 16 15  1  0
 17 15  2  0
 18 16  1  0
 19 18  2  0
 19 17  1  0
 20 18  1  0
 21 19  1  0
 22 21  1  0
 23 22  1  0
 24 23  1  0
 25 24  1  0
M  END
>  <SMILES>  (24) 
CCCCOc1cc(-c2cc(N)nc(=NC3CCCCC3)[nH]2)oc1Cl

>  <scaffold>  (24) 
cyclohexane

$$$$

     RDKit          3D

 24 26  0  0  0  0  0  0  0  0999 V2000
    0.0000   -0.0000    0.0000 C   0  0  0  0  0  0  0  0  0  0  0  0
    0.0000   -0.0000    1.5279 C   0  0  0  0  0  0  0  0  0  0  0  0
    1.4333   -0.0000    2.0570 C   0  0  0  0  0  0  0  0  0  0  0  0
    0.7869   -1.1777   -0.5729 C   0  0  0  0  0  0  0  0  0  0  0  0
    2.2339   -1.2488   -0.0607 C   0  0  0  0  0  0  0  0  0  0  0  0
    2.2192   -1.2585    1.4846 C   0  0  0  0  0  0  0  0  0  0  0  0
    2.9786   -0.1634   -0.6313 N   0  0  0  0  0  0  0  0  0  0  0  0
    3.8022   -0.3320   -1.5666 C   0  0  0  0  0  0  0  0  0  0  0  0
    4.4851    0.7926   -2.1385 C   0  0  0  0  0  0  0  0  0  0  0  0
    4.4453    2.1452   -1.8768 C   0  0  0  0  0  0  0  0  0  0  0  0
    5.3221    0.5696   -3.1701 O   0  0  0  0  0  0  0  0  0  0  0  0
    5.2751    2.8100   -2.7661 C   0  0  0  0  0  0  0  0  0  0  0  0
    5.7481    1.7954   -3.5013 C   0  0  0  0  0  0  0  0  0  0  0  0
    6.8545    1.8623   -4.9243 S   0  0  0  0  0  6  0  0  0  0  0  0
    6.2871    2.8809   -5.7742 O   0  0  0  0  0  0  0  0  0  0  0  0
    7.0745    0.5713   -5.5298 O   0  0  0  0  0  0  0  0  0  0  0  0
    8.3622    2.4367   -4.1645 C   0  0  0  0  0  0  0  0  0  0  0  0
    8.8073    3.6937   -4.4033 C   0  0  0  0  0  0  0  0  0  0  0  0
    9.0568    1.5961   -3.2959 C   0  0  0  0  0  0  0  0  0  0  0  0
    9.9526    4.2035   -3.7933 C   0  0  0  0  0  0  0  0  0  0  0  0
   10.1896    2.1009   -2.6947 C   0  0  0  0  0  0  0  0  0  0  0  0
   10.6154    3.3898   -2.8635 C   0  0  0  0  0  0  0  0  0  0  0  0
   12.0023    3.9045   -1.9799 Cl  0  0  0  0  0  0  0  0  0  0  0  0
   10.3920    5.4640   -4.1030 N   0  0  0  0  0  0  0  0  0  0  0  0
  2  1  1  0
  3  2  1  0
  4  1  1  0
  5  4  1  0
  6  5  1  0
  6  3  1  0
  7  5  1  0
  8  7  2  0
  9  8  1  0
 10  9  2  0
 11  9  1  0
 12 10  1  0
 13 12  2  0
 13 11  1  0
 14 13  1  0
 15 14  2  0
 16 14  2  0
 17 14  1  0
 18 17  2  0
 19 17  1  0
 20 18  1  0
 21 19  2  0
 22 21  1  0
 22 20  2  0
 23 22  1  0
 24 20  1  0
M  END
>  <SMILES>  (25) 
Nc1cc(S(=O)(=O)c2ccc(C=NC3CCCCC3)o2)ccc1Cl

>  <scaffold>  (25) 
cyclohexane

$$$$

     RDKit          3D

 24 26  0  0  0  0  0  0  0  0999 V2000
    0.0000    0.0000    0.0000 C   0  0  0  0  0  0  0  0  0  0  0  0
   -0.0000    0.0000    1.5279 C   0  0  0  0  0  0  0  0  0  0  0  0
    1.4333    0.0000    2.0570 C   0  0  0  0  0  0  0  0  0  0  0  0
    0.7406   -1.2355   -0.5093 C   0  0  0  0  0  0  0  0  0  0  0  0
    2.1739   -1.2355    1.5477 C   0  0  0  0  0  0  0  0  0  0  0  0
    2.1810   -1.2355    0.0000 C   0  0  0  0  0  0  0  0  0  0  0  0
   -1.3452    0.0000   -0.5442 N   0  0  0  0  0  0  0  0  0  0  0  0
   -1.8184    1.0005   -1.3390 C   0  0  0  0  0  0  0  0  0  0  0  0
   -1.1970    1.9725   -1.6739 O   0  0  0  0  0  0  0  0  0  0  0  0
   -3.1451    0.7863   -1.6786 N   0  0  0  0  0  0  0  0  0  0  0  0
   -3.9590    1.5411   -2.5089 C   0  0  0  0  0  0  0  0  0  0  0  0
   -3.5585    2.6789   -3.1594 C   0  0  0  0  0  0  0  0  0  0  0  0
   -5.3160    1.1232   -2.6447 C   0  0  0  0  0  0  0  0  0  0  0  0
   -4.4210    3.2958   -3.9775 N   0  0  0  0  0  0  0  0  0  0  0  0
   -6.1918    1.7490   -3.4673 C   0  0  0  0  0  0  0  0  0  0  0  0
   -5.7066    2.8640   -4.3005 C   0  0  0  0  0  0  0  0  0  0  0  0
   -6.4510    3.4387   -5.0919 O   0  0  0  0  0  0  0  0  0  0  0  0
   -3.9651    4.5315   -4.6062 C   0  0  0  0  0  0  0  0  0  0  0  0
   -3.3710    5.5379   -3.6493 C   0  0  0  0  0  0  0  0  0  0  0  0
   -4.1014    6.0754   -2.5799 C   0  0  0  0  0  0  0  0  0  0  0  0
   -2.0941    6.0515   -3.8717 C   0  0  0  0  0  0  0  0  0  0  0  0
   -3.5014    6.9539   -1.7036 C   0  0  0  0  0  0  0  0  0  0  0  0
   -1.4919    6.9334   -3.0005 C   0  0  0  0  0  0  0  0  0  0  0  0
   -2.1772    7.3441   -1.8283 C   0  0  0  0  0  0  0  0  0  0  0  0
  2  1  1  0
  3  2  1  0
  4  1  1  0
  5  3  1  0
  6  5  1  0
  6  4  1  0
  7  1  1  0
  8  7  1  0
  9  8  2  0
 10  8  1  0
 11 10  1  0
 12 11  2  0
 13 11  1  0
 14 12  1  0
 15 13  2  0
 16 15  1  0
 16 14  1  0
 17 16  2  0
 18 14  1  0
 19 18  1  0
 20 19  2  0
 21 19  1  0
 22 20  1  0
 23 21  2  0
 24 23  1  0
 24 22  2  0
M  END
>  <SMILES>  (26) 
O=C(Nc1ccc(=O)n(Cc2ccccc2)c1)NC1CCCCC1

>  <scaffold>  (26) 
cyclohexane

$$$$

     RDKit          3D

 22 24  0  0  0  0  0  0  0  0999 V2000
    0.0000   -0.0000   -0.0000 C   0  0  0  0  0  0  0  0  0  0  0  0
    0.0000    0.0000    1.5279 C   0  0  0  0  0  0  0  0  0  0  0  0
    1.4333    0.0000    2.0570 C   0  0  0  0  0  0  0  0  0  0  0  0
    2.2202   -1.1777    1.4840 C   0  0  0  0  0  0  0  0  0  0  0  0
    0.7406   -1.2355   -0.5093 C   0  0  0  0  0  0  0  0  0  0  0  0
    2.1732   -1.1586   -0.0430 C   0  0  0  0  0  0  0  0  0  0  0  0
    2.8566   -2.2765   -0.6273 N   0  0  0  0  0  0  0  0  0  0  0  0
    2.2358   -3.3218   -1.1123 N   0  0  0  0  0  0  0  0  0  0  0  0
    4.1682   -2.3826   -0.6690 N   0  0  0  0  0  0  0  0  0  0  0  0
    3.1455   -4.1145   -1.4916 N   0  0  0  0  0  0  0  0  0  0  0  0
    4.3496   -3.5523   -1.2280 C   0  0  0  0  0  0  0  0  0  0  0  0
    5.8301   -4.2500   -1.6250 Cl  0  0  0  0  0  0  0  0  0  0  0  0
    2.9492   -5.3769   -2.1443 C   0  0  0  0  0  0  0  0  0  0  0  0
    1.8005   -5.4026   -2.9197 O   0  0  0  0  0  0  0  0  0  0  0  0
    1.7228   -4.5602   -4.0178 C   0  0  0  0  0  0  0  0  0  0  0  0
    0.5224   -4.5857   -4.7418 C   0  0  0  0  0  0  0  0  0  0  0  0
    2.7732   -3.7736   -4.4642 C   0  0  0  0  0  0  0  0  0  0  0  0
    0.4168   -3.7969   -5.8767 C   0  0  0  0  0  0  0  0  0  0  0  0
    2.5916   -3.0248   -5.5880 C   0  0  0  0  0  0  0  0  0  0  0  0
    1.4331   -2.9704   -6.3536 C   0  0  0  0  0  0  0  0  0  0  0  0
   -0.9190   -5.7399   -4.2117 Br  0  0  0  0  0  0  0  0  0  0  0  0
    1.3581   -2.1427   -7.4333 N   0  0  0  0  0  0  0  0  0  0  0  0
  2  1  1  0
  3  2  1  0
  4  3  1  0
  5  1  1  0
  6  5  1  0
  6  4  1  0
  7  6  1  0
  8  7  1  0
  9  7  1  0
 10  8  1  0
 11 10  1  0
 11  9  2  0
 12 11  1  0
 13 10  1  0
 14 13  1  0
 15 14  2  0
 16 15  1  0
 17 15  1  0
 18 16  2  0
 19 17  2  0
 20 19  1  0
 20 18  1  0
 21 16  1  0
 22 20  2  0
M  CHG  2   8  -1  14   1
M  END
>  <SMILES>  (27) 
N=C1C=CC(=[O+]CN2[N-]N(C3CCCCC3)N=C2Cl)C(Br)=C1

>  <scaffold>  (27) 
cyclohexane

$$$$

     RDKit          3D

 28 30  0  0  0  0  0  0  0  0999 V2000
   -0.0000   -0.0000    0.0000 C   0  0  0  0  0  0  0  0  0  0  0  0
   -0.0000    0.0000    1.5279 C   0  0  0  0  0  0  0  0  0  0  0  0
    1.4333    0.0000    2.0570 C   0  0  0  0  0  0  0  0  0  0  0  0
    0.7869    1.1777   -0.5729 C   0  0  0  0  0  0  0  0  0  0  0  0
    2.2202    1.1777    1.4840 C   0  0  0  0  0  0  0  0  0  0  0  0
    2.2404    1.0871   -0.0498 C   0  0  0  0  0  0  0  0  0  0  0  0
    3.0891    2.1069   -0.6377 N   0  0  0  0  0  0  0  0  0  0  0  0
    4.3448    1.8460   -1.1206 C   0  0  0  0  0  0  0  0  0  0  0  0
    4.9701    2.7004   -1.7025 O   0  0  0  0  0  0  0  0  0  0  0  0
    2.6524    3.4818   -0.6644 C   0  0  0  0  0  0  0  0  0  0  0  0
    4.8511    0.5890   -0.8690 N   0  0  0  0  0  0  0  0  0  0  0  0
    6.0671    0.0543   -1.2919 C   0  0  0  0  0  0  0  0  0  0  0  0
    6.6785    0.4437   -2.4641 C   0  0  0  0  0  0  0  0  0  0  0  0
    6.6449   -0.9763   -0.5221 C   0  0  0  0  0  0  0  0  0  0  0  0
    7.8767   -0.1590   -2.8726 C   0  0  0  0  0  0  0  0  0  0  0  0
    7.8009   -1.6124   -0.8619 C   0  0  0  0  0  0  0  0  0  0  0  0
    8.4208   -1.2034   -2.1115 C   0  0  0  0  0  0  0  0  0  0  0  0
    8.4633    0.2870   -4.0002 O   0  0  0  0  0  0  0  0  0  0  0  0
    9.5563   -1.8511   -2.4957 F   0  0  0  0  0  0  0  0  0  0  0  0
    8.2875    1.5944   -4.4511 C   0  0  0  0  0  0  0  0  0  0  0  0
    8.4389    2.6279   -3.5519 C   0  0  0  0  0  0  0  0  0  0  0  0
    8.1129    1.7812   -5.8135 C   0  0  0  0  0  0  0  0  0  0  0  0
    8.3034    3.9117   -4.0569 C   0  0  0  0  0  0  0  0  0  0  0  0
    7.9847    3.0601   -6.3110 C   0  0  0  0  0  0  0  0  0  0  0  0
    8.0871    4.1877   -5.4062 C   0  0  0  0  0  0  0  0  0  0  0  0
    7.8581    3.2987   -7.6706 N   0  0  0  0  0  0  0  0  0  0  0  0
    7.8292    2.4376   -8.7565 C   0  0  0  0  0  0  0  0  0  0  0  0
    7.9243    1.2206   -8.6135 O   0  0  0  0  0  0  0  0  0  0  0  0
  2  1  1  0
  3  2  1  0
  4  1  1  0
  5  3  1  0
  6  5  1  0
  6  4  1  0
  7  6  1  0
  8  7  1  0
  9  8  2  0
 10  7  1  0
 11  8  1  0
 12 11  1  0
 13 12  2  0
 14 12  1  0
 15 13  1  0
 16 14  2  0
 17 16  1  0
 17 15  2  0
 18 15  1  0
 19 17  1  0
 20 18  1  0
 21 20  2  0
 22 20  1  0
 23 21  1  0
 24 22  2  0
 25 24  1  0
 25 23  2  0
 26 24  1  0
 27 26  1  0
 28 27  2  0
M  END
>  <SMILES>  (28) 
CN(C(=O)Nc1ccc(F)c(Oc2cccc(NC=O)c2)c1)C1CCCCC1

>  <scaffold>  (28) 
cyclohexane

$$$$

     RDKit          3D

 32 34  0  0  0  0  0  0  0  0999 V2000
    0.0000   -0.0000   -0.0000 C   0  0  0  0  0  0  0  0  0  0  0  0
    0.0000   -0.0000    1.5279 C   0  0  0  0  0  0  0  0  0  0  0  0
    1.4233   -0.0000    2.1071 C   0  0  1  0  0  0  0  0  0  0  0  0
    0.7869    1.1777   -0.5729 C   0  0  0  0  0  0  0  0  0  0  0  0
    2.1724    1.2498    1.5920 C   0  0  0  0  0  0  0  0  0  0  0  0
    2.1070    1.2414    0.0830 C   0  0  0  0  0  0  0  0  0  0  0  0
    3.1799    1.1064   -0.6146 N   0  0  0  0  0  0  0  0  0  0  0  0
    1.4784   -0.0551    3.6330 C   0  0  0  0  0  0  0  0  0  0  0  0
    2.0880   -0.8790    4.2596 O   0  0  0  0  0  0  0  0  0  0  0  0
    0.6874    0.8772    4.1213 O   0  0  0  0  0  0  0  0  0  0  0  0
    3.1597    0.9707   -1.9164 N   0  0  0  0  0  0  0  0  0  0  0  0
    0.6448    1.0237    5.5477 C   0  0  0  0  0  0  0  0  0  0  0  0
    1.3491    2.3301    5.9105 C   0  0  0  0  0  0  0  0  0  0  0  0
    1.3782    2.5027    7.3935 C   0  0  0  0  0  0  0  0  0  0  0  0
    2.5424    2.2217    8.0915 C   0  0  0  0  0  0  0  0  0  0  0  0
    0.2302    2.8629    8.0818 C   0  0  0  0  0  0  0  0  0  0  0  0
    2.5070    2.3485    9.4635 C   0  0  0  0  0  0  0  0  0  0  0  0
    0.1972    2.9856    9.4541 C   0  0  0  0  0  0  0  0  0  0  0  0
    1.3874    2.7393   10.2117 C   0  0  0  0  0  0  0  0  0  0  0  0
    3.6603    2.1261   10.1996 O   0  0  0  0  0  0  0  0  0  0  0  0
    4.8208    1.4694    9.6932 C   0  0  0  0  0  0  0  0  0  0  0  0
    1.4894    2.8778   11.5477 O   0  0  0  0  0  0  0  0  0  0  0  0
    4.5766   -0.0355    9.5007 C   0  0  0  0  0  0  0  0  0  0  0  0
    0.3782    3.1361   12.3489 C   0  0  0  0  0  0  0  0  0  0  0  0
    0.4375    4.1622   13.2789 C   0  0  0  0  0  0  0  0  0  0  0  0
   -0.7598    2.3753   12.2844 C   0  0  0  0  0  0  0  0  0  0  0  0
   -0.6522    4.4861   14.0582 C   0  0  0  0  0  0  0  0  0  0  0  0
   -1.8513    2.6989   13.0612 C   0  0  0  0  0  0  0  0  0  0  0  0
   -1.8583    3.7963   13.9439 C   0  0  0  0  0  0  0  0  0  0  0  0
   -2.8723    4.2396   14.7254 O   0  0  0  0  0  0  0  0  0  0  0  0
   -4.1190    3.6088   14.6083 C   0  0  0  0  0  0  0  0  0  0  0  0
   -5.0694    4.3460   15.5505 C   0  0  0  0  0  0  0  0  0  0  0  0
  2  1  1  0
  3  2  1  0
  4  1  1  0
  5  3  1  0
  6  5  1  0
  6  4  1  0
  7  6  2  0
  3  8  1  1
  9  8  2  0
 10  8  1  0
 11  7  1  0
 12 10  1  0
 13 12  1  0
 14 13  1  0
 15 14  2  0
 16 14  1  0
 17 15  1  0
 18 16  2  0
 19 18  1  0
 19 17  2  0
 20 17  1  0
 21 20  1  0
 22 19  1  0
 23 21  1  0
 24 22  1  0
 25 24  2  0
 26 24  1  0
 27 25  1  0
 28 26  2  0
 29 28  1  0
 29 27  2  0
 30 29  1  0
 31 30  1  0
 32 31  1  0
M  END
>  <SMILES>  (29) 
CCOc1ccc(Oc2ccc(CCOC(=O)C3CCCC(=NN)C3)cc2OCC)cc1

>  <scaffold>  (29) 
cyclohexane

$$$$

     RDKit          3D

 28 30  0  0  0  0  0  0  0  0999 V2000
   -0.0000    0.0000   -0.0000 C   0  0  0  0  0  0  0  0  0  0  0  0
    0.0000   -0.0000    1.5279 C   0  0  0  0  0  0  0  0  0  0  0  0
    1.4333   -0.0000    2.0570 C   0  0  0  0  0  0  0  0  0  0  0  0
    0.7869   -1.1777   -0.5729 C   0  0  0  0  0  0  0  0  0  0  0  0
    2.2202   -1.1777    1.4840 C   0  0  0  0  0  0  0  0  0  0  0  0
    2.3092   -1.1578   -0.0587 C   0  0  0  0  0  0  0  0  0  0  0  0
    3.0977   -0.0300   -0.4925 N   0  0  0  0  0  0  0  0  0  0  0  0
    2.9802   -2.4270   -0.5815 C   0  0  0  0  0  0  0  0  0  0  0  0
    2.5365   -3.5341   -0.3154 O   0  0  0  0  0  0  0  0  0  0  0  0
    4.1033   -2.2856   -1.2976 N   0  0  0  0  0  0  0  0  0  0  0  0
    4.8572   -3.3995   -1.7963 C   0  0  0  0  0  0  0  0  0  0  0  0
    6.1535   -3.6011   -1.0831 C   0  0  0  0  0  0  0  0  0  0  0  0
    6.5462   -2.7640   -0.1248 N   0  0  0  0  0  0  0  0  0  0  0  0
    7.0557   -4.6544   -1.3385 C   0  0  0  0  0  0  0  0  0  0  0  0
    7.7366   -3.2283    0.2228 N   0  0  0  0  0  0  0  0  0  0  0  0
    8.0807   -4.3477   -0.4697 C   0  0  0  0  0  0  0  0  0  0  0  0
    9.3878   -5.0678   -0.3007 C   0  0  1  0  0  0  0  0  0  0  0  0
   10.2141   -5.0247   -1.5955 C   0  0  0  0  0  0  0  0  0  0  0  0
   10.1422   -4.3735    0.8204 C   0  0  0  0  0  0  0  0  0  0  0  0
   11.3273   -3.7215    0.5562 C   0  0  0  0  0  0  0  0  0  0  0  0
    9.6762   -4.4264    2.1333 C   0  0  0  0  0  0  0  0  0  0  0  0
   11.9542   -3.0608    1.6011 C   0  0  0  0  0  0  0  0  0  0  0  0
   10.2992   -3.7718    3.1739 C   0  0  0  0  0  0  0  0  0  0  0  0
   11.4779   -3.0067    2.8933 C   0  0  0  0  0  0  0  0  0  0  0  0
   12.0238   -2.4411    4.0062 O   0  0  0  0  0  0  0  0  0  0  0  0
    9.9172   -3.7055    4.4639 O   0  0  0  0  0  0  0  0  0  0  0  0
   13.2127   -1.6847    3.8455 C   0  0  0  0  0  0  0  0  0  0  0  0
    8.7677   -4.4345    4.8324 C   0  0  0  0  0  0  0  0  0  0  0  0
  2  1  1  0
  3  2  1  0
  4  1  1  0
  5  3  1  0
  6  5  1  0
  6  4  1  0
  7  6  1  0
  8  6  1  0
  9  8  2  0
 10  8  1  0
 11 10  1  0
 12 11  1  0
 13 12  2  0
 14 12  1  0
 15 13  1  0
 16 15  1  0
 16 14  2  0
 17 16  1  0
 17 18  1  6
 19 17  1  0
 20 19  2  0
 21 19  1  0
 22 20  1  0
 23 21  2  0
 24 23  1  0
 24 22  2  0
 25 24  1  0
 26 23  1  0
 27 25  1  0
 28 26  1  0
M  END
>  <SMILES>  (30) 
COc1ccc(C(C)c2cc(CNC(=O)C3(N)CCCCC3)n[nH]2)cc1OC

>  <scaffold>  (30) 
cyclohexane

$$$$

     RDKit          3D

 27 30  0  0  0  0  0  0  0  0999 V2000
    0.0000    0.0000   -0.0000 C   0  0  0  0  0  0  0  0  0  0  0  0
   -0.0000   -0.0000    1.5279 C   0  0  0  0  0  0  0  0  0  0  0  0
    1.4333    0.0000    2.0570 C   0  0  0  0  0  0  0  0  0  0  0  0
    2.2202   -1.1777    1.4840 C   0  0  0  0  0  0  0  0  0  0  0  0
    0.7869   -1.1777   -0.5729 C   0  0  2  0  0  0  0  0  0  0  0  0
    2.2404   -1.0871   -0.0498 C   0  0  2  0  0  0  0  0  0  0  0  0
    3.0130   -2.1461   -0.6328 N   0  0  0  0  0  0  0  0  0  0  0  0
    4.3667   -2.1692   -0.8451 C   0  0  0  0  0  0  0  0  0  0  0  0
    2.4756   -3.3436   -0.9355 N   0  0  0  0  0  0  0  0  0  0  0  0
    5.4427   -1.3075   -0.7000 C   0  0  0  0  0  0  0  0  0  0  0  0
    4.5331   -3.4783   -1.3867 C   0  0  0  0  0  0  0  0  0  0  0  0
    3.3067   -4.1689   -1.3933 N   0  0  0  0  0  0  0  0  0  0  0  0
    6.7048   -1.7014   -1.0892 C   0  0  0  0  0  0  0  0  0  0  0  0
    5.8007   -3.8680   -1.7902 C   0  0  0  0  0  0  0  0  0  0  0  0
    6.8305   -2.9833   -1.6227 C   0  0  0  0  0  0  0  0  0  0  0  0
    8.1007   -3.3145   -2.0427 F   0  0  0  0  0  0  0  0  0  0  0  0
    0.7104   -1.1625   -2.0988 C   0  0  0  0  0  0  0  0  0  0  0  0
    0.4637   -0.1480   -2.7475 O   0  0  0  0  0  0  0  0  0  0  0  0
    0.9575   -2.3561   -2.7076 N   0  0  0  0  0  0  0  0  0  0  0  0
    1.0215   -2.6680   -4.0567 C   0  0  0  0  0  0  0  0  0  0  0  0
    0.8265   -1.7285   -5.0680 C   0  0  0  0  0  0  0  0  0  0  0  0
    1.3335   -3.9172   -4.3314 N   0  0  0  0  0  0  0  0  0  0  0  0
    0.8626   -2.1690   -6.3652 C   0  0  0  0  0  0  0  0  0  0  0  0
    1.3742   -4.3438   -5.5843 C   0  0  0  0  0  0  0  0  0  0  0  0
    1.0923   -3.5356   -6.6262 C   0  0  0  0  0  0  0  0  0  0  0  0
    1.1677   -3.9167   -7.9240 N   0  0  0  0  0  0  0  0  0  0  0  0
    1.2434   -5.3034   -8.3448 C   0  0  0  0  0  0  0  0  0  0  0  0
  2  1  1  0
  3  2  1  0
  4  3  1  0
  5  1  1  0
  6  5  1  0
  6  4  1  0
  6  7  1  6
  8  7  1  0
  9  7  1  0
 10  8  1  0
 11  8  2  0
 12 11  1  0
 12  9  2  0
 13 10  2  0
 14 11  1  0
 15 14  2  0
 15 13  1  0
 16 15  1  0
  5 17  1  6
 18 17  2  0
 19 17  1  0
 20 19  1  0
 21 20  2  0
 22 20  1  0
 23 21  1  0
 24 22  2  0
 25 24  1  0
 25 23  2  0
 26 25  1  0
 27 26  1  0
M  END
>  <SMILES>  (31) 
CNc1ccc(NC(=O)C2CCCCC2n2nnc3cc(F)ccc32)nc1

>  <scaffold>  (31) 
cyclohexane

$$$$

     RDKit          3D

 30 32  0  0  0  0  0  0  0  0999 V2000
   -0.0000   -0.0000   -0.0000 C   0  0  0  0  0  0  0  0  0  0  0  0
    0.0000   -0.0000    1.5279 C   0  0  0  0  0  0  0  0  0  0  0  0
    1.4244    0.0000    2.0805 C   0  0  0  0  0  0  0  0  0  0  0  0
    0.7406   -1.2355   -0.5093 C   0  0  0  0  0  0  0  0  0  0  0  0
    2.1810   -1.2355   -0.0000 C   0  0  0  0  0  0  0  0  0  0  0  0
    2.2204   -1.1912    1.5009 C   0  0  0  0  0  0  0  0  0  0  0  0
    3.5608   -1.1192    2.0071 N   0  0  0  0  0  0  0  0  0  0  0  0
    4.0407   -1.9841    2.8531 N   0  0  0  0  0  0  0  0  0  0  0  0
    4.4151   -0.1804    1.6872 N   0  0  0  0  0  0  0  0  0  0  0  0
    5.2194   -1.5810    3.1107 N   0  0  0  0  0  0  0  0  0  0  0  0
    5.4966   -0.4772    2.4194 C   0  0  0  0  0  0  0  0  0  0  0  0
    6.7730    0.2129    2.4107 C   0  0  0  0  0  0  0  0  0  0  0  0
    6.9441    1.3862    1.6774 C   0  0  0  0  0  0  0  0  0  0  0  0
    7.8538   -0.2957    3.1140 C   0  0  0  0  0  0  0  0  0  0  0  0
    8.1458    2.0256    1.7380 C   0  0  0  0  0  0  0  0  0  0  0  0
    9.0700    0.3499    3.1751 C   0  0  0  0  0  0  0  0  0  0  0  0
    9.2297    1.5804    2.4934 C   0  0  0  0  0  0  0  0  0  0  0  0
   10.3837    2.2718    2.5609 F   0  0  0  0  0  0  0  0  0  0  0  0
    9.9829   -0.2695    3.9481 O   0  0  0  0  0  0  0  0  0  0  0  0
   11.3398    0.1420    3.9174 C   0  0  0  0  0  0  0  0  0  0  0  0
   12.0555   -0.3647    2.6662 C   0  0  0  0  0  0  0  0  0  0  0  0
   13.5230    0.0582    2.7082 C   0  0  0  0  0  0  0  0  0  0  0  0
   14.2720   -0.3783    1.4500 C   0  0  0  0  0  0  0  0  0  0  0  0
   15.7166    0.1147    1.5171 C   0  0  0  0  0  0  0  0  0  0  0  0
   16.3056   -0.3889    0.3485 O   0  0  0  0  0  0  0  0  0  0  0  0
   17.6206    0.1215    0.2018 C   0  0  0  0  0  0  0  0  0  0  0  0
   18.6613   -0.6150    1.0437 C   0  0  0  0  0  0  0  0  0  0  0  0
   20.1183   -0.2558    0.7563 C   0  0  0  0  0  0  0  0  0  0  0  0
   21.1150   -0.9786    1.6610 C   0  0  0  0  0  0  0  0  0  0  0  0
   22.5834   -0.6127    1.4505 C   0  0  0  0  0  0  0  0  0  0  0  0
  2  1  1  0
  3  2  1  0
  4  1  1  0
  5  4  1  0
  6  5  1  0
  6  3  1  0
  7  6  1  0
  8  7  1  0
  9  7  1  0
 10  8  2  0
 11 10  1  0
 11  9  2  0
 12 11  1  0
 13 12  2  0
 14 12  1  0
 15 13  1  0
 16 14  2  0
 17 16  1  0
 17 15  2  0
 18 17  1  0
 19 16  1  0
 20 19  1  0
 21 20  1  0
 22 21  1  0
 23 22  1  0
 24 23  1  0
 25 24  1  0
 26 25  1  0
 27 26  1  0
 28 27  1  0
 29 28  1  0
 30 29  1  0
M  END
>  <SMILES>  (32) 
CCCCCOCCCCCOc1cc(-c2nnn(C3CCCCC3)n2)ccc1F

>  <scaffold>  (32) 
cyclohexane

$$$$

     RDKit          3D

 33 35  0  0  0  0  0  0  0  0999 V2000
   -0.0000   -0.0000    0.0000 C   0  0  0  0  0  0  0  0  0  0  0  0
    0.0000   -0.0000    1.5279 C   0  0  0  0  0  0  0  0  0  0  0  0
    1.4333    0.0000    2.0570 C   0  0  0  0  0  0  0  0  0  0  0  0
    2.1739   -1.2355    1.5477 C   0  0  0  0  0  0  0  0  0  0  0  0
    0.7406   -1.2355   -0.5093 C   0  0  0  0  0  0  0  0  0  0  0  0
    2.1259   -1.3108    0.0136 C   0  0  0  0  0  0  0  0  0  0  0  0
    2.8930   -0.2321   -0.5810 N   0  0  0  0  0  0  0  0  0  0  0  0
    4.1226   -0.4156   -1.1193 C   0  0  0  0  0  0  0  0  0  0  0  0
    4.6642   -1.4937   -1.2645 O   0  0  0  0  0  0  0  0  0  0  0  0
    4.7221    0.7532   -1.4816 N   0  0  0  0  0  0  0  0  0  0  0  0
    5.9679    0.7909   -2.2248 C   0  0  0  0  0  0  0  0  0  0  0  0
    5.7932    1.2404   -3.6380 C   0  0  0  0  0  0  0  0  0  0  0  0
    5.2938    0.5698   -4.7337 C   0  0  0  0  0  0  0  0  0  0  0  0
    6.0951    2.4983   -4.0657 N   0  0  0  0  0  0  0  0  0  0  0  0
    5.2741    1.4117   -5.8347 C   0  0  0  0  0  0  0  0  0  0  0  0
    5.7705    2.6033   -5.4011 C   0  0  0  0  0  0  0  0  0  0  0  0
    6.6781    3.5661   -3.2901 C   0  0  0  0  0  0  0  0  0  0  0  0
    4.8150    1.1970   -7.1079 O   0  0  0  0  0  0  0  0  0  0  0  0
    6.0225    3.8247   -6.2067 C   0  0  0  0  0  0  0  0  0  0  0  0
    5.3412    0.0582   -7.6973 C   0  0  0  0  0  0  0  0  0  0  0  0
    6.6297   -0.4805   -7.5020 C   0  0  0  0  0  0  0  0  0  0  0  0
    4.5227   -0.4863   -8.6859 C   0  0  0  0  0  0  0  0  0  0  0  0
    7.0599   -1.6019   -8.1939 C   0  0  0  0  0  0  0  0  0  0  0  0
    4.9580   -1.5786   -9.3743 C   0  0  0  0  0  0  0  0  0  0  0  0
    6.2112   -2.1598   -9.1372 C   0  0  0  0  0  0  0  0  0  0  0  0
    6.4966   -3.2774   -9.8329 O   0  0  0  0  0  0  0  0  0  0  0  0
    7.4364    0.2071   -6.6334 O   0  0  0  0  0  0  0  0  0  0  0  0
    8.7367   -0.2597   -6.4466 C   0  0  0  0  0  0  0  0  0  0  0  0
    7.7407   -3.9432   -9.6901 C   0  0  0  0  0  0  0  0  0  0  0  0
    7.8068   -5.1313  -10.6345 C   0  0  0  0  0  0  0  0  0  0  0  0
    9.1085   -5.9163  -10.4803 C   0  0  0  0  0  0  0  0  0  0  0  0
    9.1015   -7.1284  -11.4105 C   0  0  0  0  0  0  0  0  0  0  0  0
   10.3611   -7.9789  -11.2544 C   0  0  0  0  0  0  0  0  0  0  0  0
  2  1  1  0
  3  2  1  0
  4  3  1  0
  5  1  1  0
  6  5  1  0
  6  4  1  0
  7  6  1  0
  8  7  1  0
  9  8  2  0
 10  8  1  0
 11 10  1  0
 12 11  1  0
 13 12  2  0
 14 12  1  0
 15 13  1  0
 16 15  2  0
 16 14  1  0
 17 14  1  0
 18 15  1  0
 19 16  1  0
 20 18  1  0
 21 20  2  0
 22 20  1  0
 23 21  1  0
 24 22  2  0
 25 24  1  0
 25 23  2  0
 26 25  1  0
 27 21  1  0
 28 27  1  0
 29 26  1  0
 30 29  1  0
 31 30  1  0
 32 31  1  0
 33 32  1  0
M  END
>  <SMILES>  (33) 
CCCCCOc1ccc(Oc2cc(CNC(=O)NC3CCCCC3)n(C)c2C)c(OC)c1

>  <scaffold>  (33) 
cyclohexane

$$$$

     RDKit          3D

 24 26  0  0  0  0  0  0  0  0999 V2000
    0.0000   -0.0000   -0.0000 C   0  0  0  0  0  0  0  0  0  0  0  0
    0.0000    0.0000    1.5279 C   0  0  0  0  0  0  0  0  0  0  0  0
    1.4333   -0.0000    2.0570 C   0  0  0  0  0  0  0  0  0  0  0  0
    2.2202   -1.1777    1.4840 C   0  0  0  0  0  0  0  0  0  0  0  0
    0.7869   -1.1777   -0.5729 C   0  0  0  0  0  0  0  0  0  0  0  0
    2.2339   -1.1066   -0.0607 C   0  0  0  0  0  0  0  0  0  0  0  0
    3.0318   -2.1721   -0.6173 N   0  0  0  0  0  0  0  0  0  0  0  0
    3.7905   -2.0404   -1.7509 C   0  0  0  0  0  0  0  0  0  0  0  0
    4.2948   -3.1669   -2.2710 N   0  0  0  0  0  0  0  0  0  0  0  0
    4.0722   -0.8177   -2.3401 C   0  0  0  0  0  0  0  0  0  0  0  0
    5.0641   -3.0829   -3.3268 C   0  0  0  0  0  0  0  0  0  0  0  0
    4.8905   -0.7298   -3.4654 C   0  0  0  0  0  0  0  0  0  0  0  0
    5.3999   -1.8769   -3.9583 C   0  0  0  0  0  0  0  0  0  0  0  0
    5.2294    0.7703   -4.2855 S   0  0  0  0  0  0  0  0  0  0  0  0
    6.3187   -1.9157   -5.1023 C   0  0  0  0  0  0  0  0  0  0  0  0
    7.1953   -1.0403   -5.2072 O   0  0  0  0  0  0  0  0  0  0  0  0
    6.0966   -2.8634   -6.0334 N   0  0  0  0  0  0  0  0  0  0  0  0
    4.0718    1.9295   -3.5553 C   0  0  0  0  0  0  0  0  0  0  0  0
    2.7029    1.7261   -3.6338 C   0  0  0  0  0  0  0  0  0  0  0  0
    4.5693    3.0726   -2.9675 C   0  0  0  0  0  0  0  0  0  0  0  0
    1.8512    2.6693   -3.1004 C   0  0  0  0  0  0  0  0  0  0  0  0
    3.7152    4.0155   -2.4374 C   0  0  0  0  0  0  0  0  0  0  0  0
    2.3503    3.8442   -2.5401 C   0  0  0  0  0  0  0  0  0  0  0  0
    1.4196    4.7121   -2.0985 O   0  0  0  0  0  0  0  0  0  0  0  0
  2  1  1  0
  3  2  1  0
  4  3  1  0
  5  1  1  0
  6  5  1  0
  6  4  1  0
  7  6  1  0
  8  7  1  0
  9  8  1  0
 10  8  2  0
 11  9  2  0
 12 10  1  0
 13 12  1  0
 13 11  1  0
 14 12  2  0
 15 13  2  0
 16 15  1  0
 17 15  1  0
 18 14  1  0
 19 18  2  0
 20 18  1  0
 21 19  1  0
 22 20  2  0
 23 22  1  0
 23 21  2  0
 24 23  1  0
M  CHG  2  14   1  16  -1
M  END
>  <SMILES>  (34) 
NC([O-])=C1C=NC(NC2CCCCC2)=CC1=[S+]c1ccc(O)cc1

>  <scaffold>  (34) 
cyclohexane

$$$$

     RDKit          3D

 21 22  0  0  0  0  0  0  0  0999 V2000
   -0.0000    0.0000   -0.0000 C   0  0  0  0  0  0  0  0  0  0  0  0
   -0.0000   -0.0000    1.5279 C   0  0  0  0  0  0  0  0  0  0  0  0
    1.4333    0.0000    2.0570 C   0  0  0  0  0  0  0  0  0  0  0  0
    2.1739   -1.2355    1.5477 C   0  0  0  0  0  0  0  0  0  0  0  0
    0.7406   -1.2355   -0.5093 C   0  0  0  0  0  0  0  0  0  0  0  0
    2.1950   -1.2410    0.0200 C   0  0  0  0  0  0  0  0  0  0  0  0
    2.9339   -2.3709   -0.5119 N   0  0  0  0  0  0  0  0  0  0  0  0
    4.0290   -2.2281   -1.2832 C   0  0  0  0  0  0  0  0  0  0  0  0
    4.5168   -1.1665   -1.6174 O   0  0  0  0  0  0  0  0  0  0  0  0
    4.5675   -3.4294   -1.7417 N   0  0  0  0  0  0  0  0  0  0  0  0
    4.0481   -4.6108   -1.4454 N   0  0  0  0  0  0  0  0  0  0  0  0
    4.5452   -5.6801   -1.9226 C   0  0  0  0  0  0  0  0  0  0  0  0
    3.9873   -6.9779   -1.6724 C   0  0  0  0  0  0  0  0  0  0  0  0
    4.2866   -8.2537   -2.0993 C   0  0  0  0  0  0  0  0  0  0  0  0
    2.8891   -7.0979   -0.9016 O   0  0  0  0  0  0  0  0  0  0  0  0
    3.3558   -9.1974   -1.5723 C   0  0  0  0  0  0  0  0  0  0  0  0
    2.5946   -8.4044   -0.9059 C   0  0  0  0  0  0  0  0  0  0  0  0
    3.2248  -10.6661   -1.6436 C   0  0  0  0  0  0  0  0  0  0  0  0
    2.4131  -11.3767   -1.1150 O   0  0  0  0  0  0  0  0  0  0  0  0
    4.2237  -11.0805   -2.4337 O   0  0  0  0  0  0  0  0  0  0  0  0
    4.2994  -12.4809   -2.5811 C   0  0  0  0  0  0  0  0  0  0  0  0
  2  1  1  0
  3  2  1  0
  4  3  1  0
  5  1  1  0
  6  5  1  0
  6  4  1  0
  7  6  1  0
  8  7  1  0
  9  8  2  0
 10  8  1  0
 11 10  1  0
 12 11  2  0
 13 12  1  0
 14 13  2  0
 15 13  1  0
 16 14  1  0
 17 16  2  0
 17 15  1  0
 18 16  1  0
 19 18  2  0
 20 18  1  0
 21 20  1  0
M  END
>  <SMILES>  (35) 
COC(=O)c1coc(C=NNC(=O)NC2CCCCC2)c1

>  <scaffold>  (35) 
cyclohexane

$$$$

     RDKit          3D

 25 27  0  0  0  0  0  0  0  0999 V2000
   -0.0000   -0.0000    0.0000 C   0  0  0  0  0  0  0  0  0  0  0  0
   -0.0000    0.0000    1.5279 C   0  0  0  0  0  0  0  0  0  0  0  0
    1.4333   -0.0000    2.0570 C   0  0  0  0  0  0  0  0  0  0  0  0
    0.7869    1.1777   -0.5729 C   0  0  0  0  0  0  0  0  0  0  0  0
    2.2256    1.1070   -0.0637 C   0  0  0  0  0  0  0  0  0  0  0  0
    2.1739    1.2355    1.5477 C   0  0  0  0  0  0  0  0  0  0  0  0
    3.0282    2.1786   -0.6234 N   0  0  0  0  0  0  0  0  0  0  0  0
    4.3000    1.9564   -1.0590 C   0  0  0  0  0  0  0  0  0  0  0  0
    4.8036    0.8727   -1.2369 O   0  0  0  0  0  0  0  0  0  0  0  0
    4.9371    3.1516   -1.3139 N   0  0  0  0  0  0  0  0  0  0  0  0
    6.2056    3.3437   -1.8176 C   0  0  0  0  0  0  0  0  0  0  0  0
    6.5133    4.6267   -1.9988 N   0  0  0  0  0  0  0  0  0  0  0  0
    7.1306    2.3363   -2.0431 C   0  0  0  0  0  0  0  0  0  0  0  0
    7.7192    4.9341   -2.4284 C   0  0  0  0  0  0  0  0  0  0  0  0
    8.3748    2.6575   -2.4963 C   0  0  0  0  0  0  0  0  0  0  0  0
    8.6977    4.0043   -2.7070 C   0  0  0  0  0  0  0  0  0  0  0  0
    9.9993    4.3877   -3.1196 N   0  0  0  0  0  0  0  0  0  0  0  0
   10.5871    3.9992   -4.3042 C   0  0  0  0  0  0  0  0  0  0  0  0
   10.7989    5.1619   -2.3336 C   0  0  0  0  0  0  0  0  0  0  0  0
   11.8453    4.5222   -4.3132 C   0  0  0  0  0  0  0  0  0  0  0  0
   11.9604    5.2639   -3.0387 C   0  0  0  0  0  0  0  0  0  0  0  0
    9.8784    3.1923   -5.1428 O   0  0  0  0  0  0  0  0  0  0  0  0
   10.4600    2.7252   -6.3490 C   0  0  0  0  0  0  0  0  0  0  0  0
   13.0756    5.9134   -2.6016 O   0  0  0  0  0  0  0  0  0  0  0  0
   11.4510    1.5905   -6.0946 C   0  0  0  0  0  0  0  0  0  0  0  0
  2  1  1  0
  3  2  1  0
  4  1  1  0
  5  4  1  0
  6  5  1  0
  6  3  1  0
  7  5  1  0
  8  7  1  0
  9  8  2  0
 10  8  1  0
 11 10  1  0
 12 11  2  0
 13 11  1  0
 14 12  1  0
 15 13  2  0
 16 15  1  0
 16 14  2  0
 17 16  1  0
 18 17  1  0
 19 17  1  0
 20 18  2  0
 21 19  2  0
 21 20  1  0
 22 18  1  0
 23 22  1  0
 24 21  1  0
 25 23  1  0
M  END
>  <SMILES>  (36) 
CCOc1cc(O)cn1-c1ccc(NC(=O)NC2CCCCC2)nc1

>  <scaffold>  (36) 
cyclohexane

$$$$

     RDKit          3D

 26 28  0  0  0  0  0  0  0  0999 V2000
    0.0000    0.0000    0.0000 C   0  0  0  0  0  0  0  0  0  0  0  0
    0.0000   -0.0000    1.5279 C   0  0  0  0  0  0  0  0  0  0  0  0
    1.4333   -0.0000    2.0570 C   0  0  0  0  0  0  0  0  0  0  0  0
    0.7406    1.2355   -0.5093 C   0  0  0  0  0  0  0  0  0  0  0  0
    2.1739    1.2355    1.5477 C   0  0  0  0  0  0  0  0  0  0  0  0
    2.1633    1.3054    0.0670 C   0  0  0  0  0  0  0  0  0  0  0  0
    2.7985    2.5049   -0.3978 N   0  0  0  0  0  0  0  0  0  0  0  0
    3.4395    2.6081   -1.5517 N   0  0  0  0  0  0  0  0  0  0  0  0
    2.8210    3.6347    0.2923 N   0  0  0  0  0  0  0  0  0  0  0  0
    3.8227    3.8096   -1.6484 N   0  0  0  0  0  0  0  0  0  0  0  0
    3.4697    4.4929   -0.5439 C   0  0  0  0  0  0  0  0  0  0  0  0
    3.7940    5.8882   -0.1870 C   0  0  0  0  0  0  0  0  0  0  0  0
    3.5190    6.4085    0.8761 O   0  0  0  0  0  0  0  0  0  0  0  0
    4.4747    6.4486   -1.1952 N   0  0  0  0  0  0  0  0  0  0  0  0
    4.8686    7.8351   -1.1298 C   0  0  0  0  0  0  0  0  0  0  0  0
    3.9890    8.6639   -2.0069 C   0  0  0  0  0  0  0  0  0  0  0  0
    2.7287    9.0686   -1.7575 C   0  0  0  0  0  0  0  0  0  0  0  0
    4.4737    9.1241   -3.5951 S   0  0  0  0  0  0  0  0  0  0  0  0
    2.1683    9.7879   -2.8121 C   0  0  0  0  0  0  0  0  0  0  0  0
    2.9675    9.9287   -3.8906 C   0  0  0  0  0  0  0  0  0  0  0  0
    2.7326   10.5911   -5.0489 F   0  0  0  0  0  0  0  0  0  0  0  0
    0.8093   10.4063   -2.7859 C   0  0  0  0  0  0  0  0  0  0  0  0
    0.8085   11.6683   -1.9247 C   0  0  0  0  0  0  0  0  0  0  0  0
   -0.5283   12.4242   -1.9784 C   0  0  0  0  0  0  0  0  0  0  0  0
   -1.6461   11.6888   -1.2407 C   0  0  0  0  0  0  0  0  0  0  0  0
   -0.3974   13.7799   -1.2861 C   0  0  0  0  0  0  0  0  0  0  0  0
  2  1  1  0
  3  2  1  0
  4  1  1  0
  5  3  1  0
  6  5  1  0
  6  4  1  0
  7  6  1  0
  8  7  1  0
  9  7  1  0
 10  8  2  0
 11 10  1  0
 11  9  2  0
 12 11  1  0
 13 12  2  0
 14 12  1  0
 15 14  1  0
 16 15  1  0
 17 16  2  0
 18 16  1  0
 19 17  1  0
 20 19  2  0
 20 18  1  0
 21 20  1  0
 22 19  1  0
 23 22  1  0
 24 23  1  0
 25 24  1  0
 26 24  1  0
M  END
>  <SMILES>  (37) 
CC(C)CCc1cc(CNC(=O)c2nnn(C3CCCCC3)n2)sc1F

>  <scaffold>  (37) 
cyclohexane

$$$$

     RDKit          3D

 27 28  0  0  0  0  0  0  0  0999 V2000
    0.0000   -0.0000    0.0000 C   0  0  0  0  0  0  0  0  0  0  0  0
   -0.0000    0.0000    1.5279 C   0  0  0  0  0  0  0  0  0  0  0  0
    1.4333    0.0000    2.0570 C   0  0  0  0  0  0  0  0  0  0  0  0
    2.1222   -1.2889    1.6114 C   0  0  0  0  0  0  0  0  0  0  0  0
    2.1365   -1.5310    0.0850 C   0  0  2  0  0  0  0  0  0  0  0  0
    0.8883   -1.0824   -0.5664 C   0  0  0  0  0  0  0  0  0  0  0  0
    0.5574   -1.6516   -1.5960 O   0  0  0  0  0  0  0  0  0  0  0  0
    2.3764   -3.0248   -0.1278 C   0  0  0  0  0  0  0  0  0  0  0  0
    3.3901   -3.4971   -0.5473 O   0  0  0  0  0  0  0  0  0  0  0  0
    1.3333   -3.7686    0.2630 O   0  0  0  0  0  0  0  0  0  0  0  0
    1.3938   -5.1137    0.3034 C   0  0  0  0  0  0  0  0  0  0  0  0
    2.5077   -5.7865    0.3233 N   0  0  0  0  0  0  0  0  0  0  0  0
    0.2010   -5.8318    0.3756 C   0  0  0  0  0  0  0  0  0  0  0  0
    2.5193   -7.0926    0.4099 N   0  0  0  0  0  0  0  0  0  0  0  0
    0.2152   -7.2068    0.4687 C   0  0  0  0  0  0  0  0  0  0  0  0
    1.4046   -7.7754    0.4800 C   0  0  0  0  0  0  0  0  0  0  0  0
   -1.0267   -8.0200    0.4945 C   0  0  0  0  0  0  0  0  0  0  0  0
    1.5784   -9.4694    0.5221 Cl  0  0  0  0  0  0  0  0  0  0  0  0
   -1.4238   -8.4389   -0.9201 C   0  0  1  0  0  0  0  0  0  0  0  0
   -0.1296   -9.4820   -1.5937 Cl  0  0  0  0  0  0  0  0  0  0  0  0
   -2.7717   -9.1568   -0.9663 C   0  0  0  0  0  0  0  0  0  0  0  0
   -3.1471   -9.5051   -2.4058 C   0  0  0  0  0  0  0  0  0  0  0  0
   -4.5072  -10.1734   -2.5112 C   0  0  0  0  0  0  0  0  0  0  0  0
   -4.9286  -10.5067   -4.2659 S   0  0  0  0  0  0  0  0  0  0  0  0
   -6.6712  -10.9781   -4.0860 C   0  0  0  0  0  0  0  0  0  0  0  0
   -7.6230   -9.7907   -3.9497 C   0  0  0  0  0  0  0  0  0  0  0  0
   -9.0685  -10.2419   -3.7465 C   0  0  0  0  0  0  0  0  0  0  0  0
  2  1  1  0
  3  2  1  0
  4  3  1  0
  5  4  1  0
  6  5  1  0
  6  1  1  0
  7  6  2  0
  5  8  1  1
  9  8  2  0
 10  8  1  0
 11 10  1  0
 12 11  2  0
 13 11  1  0
 14 12  1  0
 15 13  2  0
 16 15  1  0
 16 14  2  0
 17 15  1  0
 18 16  1  0
 19 17  1  0
 19 20  1  1
 21 19  1  0
 22 21  1  0
 23 22  1  0
 24 23  1  0
 25 24  1  0
 26 25  1  0
 27 26  1  0
M  END
>  <SMILES>  (38) 
CCCSCCCC(Cl)Cc1cc(OC(=O)C2CCCCC2=O)nnc1Cl

>  <scaffold>  (38) 
cyclohexane

$$$$

     RDKit          3D

 19 20  0  0  0  0  0  0  0  0999 V2000
    0.0000    0.0000   -0.0000 C   0  0  0  0  0  0  0  0  0  0  0  0
    0.0000   -0.0000    1.5279 C   0  0  0  0  0  0  0  0  0  0  0  0
    1.4418   -0.0000    2.0333 C   0  0  0  0  0  0  0  0  0  0  0  0
    2.2287   -1.1777    1.4604 C   0  0  0  0  0  0  0  0  0  0  0  0
    0.7869   -1.1777   -0.5729 C   0  0  0  0  0  0  0  0  0  0  0  0
    2.2239   -1.0951   -0.0652 C   0  0  0  0  0  0  0  0  0  0  0  0
    3.0000   -2.1603   -0.6524 N   0  0  0  0  0  0  0  0  0  0  0  0
    4.0748   -1.9267   -1.4301 C   0  0  0  0  0  0  0  0  0  0  0  0
    4.5071   -0.8370   -1.7223 O   0  0  0  0  0  0  0  0  0  0  0  0
    4.5969   -3.0938   -1.9013 N   0  0  0  0  0  0  0  0  0  0  0  0
    5.8181   -3.0977   -2.6064 N   0  0  0  0  0  0  0  0  0  0  0  0
    6.9212   -3.7136   -1.8264 C   0  0  0  0  0  0  0  0  0  0  0  0
    8.2082   -3.6451   -2.5974 C   0  0  0  0  0  0  0  0  0  0  0  0
    9.2695   -2.8660   -2.1637 C   0  0  0  0  0  0  0  0  0  0  0  0
    8.3357   -4.3622   -3.7861 C   0  0  0  0  0  0  0  0  0  0  0  0
   10.4194   -2.7957   -2.9346 C   0  0  0  0  0  0  0  0  0  0  0  0
    9.4725   -4.2914   -4.5481 C   0  0  0  0  0  0  0  0  0  0  0  0
   10.5753   -3.4700   -4.1356 C   0  0  0  0  0  0  0  0  0  0  0  0
   11.6329   -3.4383   -5.0066 O   0  0  0  0  0  0  0  0  0  0  0  0
  2  1  1  0
  3  2  1  0
  4  3  1  0
  5  1  1  0
  6  5  1  0
  6  4  1  0
  7  6  1  0
  8  7  1  0
  9  8  2  0
 10  8  1  0
 11 10  1  0
 12 11  1  0
 13 12  1  0
 14 13  2  0
 15 13  1  0
 16 14  1  0
 17 15  2  0
 18 17  1  0
 18 16  2  0
 19 18  1  0
M  END
>  <SMILES>  (39) 
O=C(NNCc1ccc(O)cc1)NC1CCCCC1

>  <scaffold>  (39) 
cyclohexane

$$$$

     RDKit          3D

 30 32  0  0  0  0  0  0  0  0999 V2000
    0.0000    0.0000   -0.0000 C   0  0  0  0  0  0  0  0  0  0  0  0
   -0.0000   -0.0000    1.5279 C   0  0  0  0  0  0  0  0  0  0  0  0
    1.4333    0.0000    2.0570 C   0  0  0  0  0  0  0  0  0  0  0  0
    0.7406   -1.2355   -0.5093 C   0  0  0  0  0  0  0  0  0  0  0  0
    2.1810   -1.2355    0.0000 C   0  0  0  0  0  0  0  0  0  0  0  0
    2.2247   -1.1844    1.4807 C   0  0  0  0  0  0  0  0  0  0  0  0
    3.5890   -1.1116    1.9700 N   0  0  0  0  0  0  0  0  0  0  0  0
    4.0535   -1.9332    2.9419 C   0  0  0  0  0  0  0  0  0  0  0  0
    3.4109   -2.8949    3.3578 O   0  0  0  0  0  0  0  0  0  0  0  0
    5.3197   -1.6552    3.4099 N   0  0  0  0  0  0  0  0  0  0  0  0
    6.1241   -0.5347    3.1582 C   0  0  0  0  0  0  0  0  0  0  0  0
    7.4852   -0.7267    2.9257 C   0  0  0  0  0  0  0  0  0  0  0  0
    5.5805    0.7576    3.1731 C   0  0  0  0  0  0  0  0  0  0  0  0
    8.3284    0.3543    2.7215 C   0  0  0  0  0  0  0  0  0  0  0  0
    6.4245    1.8378    2.9674 C   0  0  0  0  0  0  0  0  0  0  0  0
    7.8147    1.6388    2.8085 C   0  0  0  0  0  0  0  0  0  0  0  0
    6.0241    3.1394    3.0117 O   0  0  0  0  0  0  0  0  0  0  0  0
    4.6868    3.4775    3.2138 C   0  0  0  0  0  0  0  0  0  0  0  0
    4.3918    4.2659    4.3351 C   0  0  0  0  0  0  0  0  0  0  0  0
    3.6891    3.0794    2.3377 C   0  0  0  0  0  0  0  0  0  0  0  0
    3.0828    4.6683    4.5496 C   0  0  0  0  0  0  0  0  0  0  0  0
    2.3803    3.4815    2.5536 C   0  0  0  0  0  0  0  0  0  0  0  0
    2.1182    4.2690    3.6376 C   0  0  0  0  0  0  0  0  0  0  0  0
    5.4327    4.5911    5.1649 O   0  0  0  0  0  0  0  0  0  0  0  0
    5.1767    5.3399    6.3321 C   0  0  0  0  0  0  0  0  0  0  0  0
    6.4975    5.4989    7.0835 C   0  0  0  0  0  0  0  0  0  0  0  0
    6.3504    6.2425    8.4001 C   0  0  0  0  0  0  0  0  0  0  0  0
    7.6343    6.3805    9.2168 C   0  0  0  0  0  0  0  0  0  0  0  0
    7.3579    7.0371   10.4338 O   0  0  0  0  0  0  0  0  0  0  0  0
    8.4853    7.2751   11.2608 C   0  0  0  0  0  0  0  0  0  0  0  0
  2  1  1  0
  3  2  1  0
  4  1  1  0
  5  4  1  0
  6  5  1  0
  6  3  1  0
  7  6  1  0
  8  7  1  0
  9  8  2  0
 10  8  1  0
 11 10  1  0
 12 11  2  0
 13 11  1  0
 14 12  1  0
 15 13  2  0
 16 15  1  0
 16 14  2  0
 17 15  1  0
 18 17  1  0
 19 18  2  0
 20 18  1  0
 21 19  1  0
 22 20  2  0
 23 22  1  0
 23 21  2  0
 24 19  1  0
 25 24  1  0
 26 25  1  0
 27 26  1  0
 28 27  1  0
 29 28  1  0
 30 29  1  0
M  END
>  <SMILES>  (40) 
COCCCCOc1ccccc1Oc1cccc(NC(=O)NC2CCCCC2)c1

>  <scaffold>  (40) 
cyclohexane

$$$$

     RDKit          3D

 33 36  0  0  0  0  0  0  0  0999 V2000
   -0.0000   -0.0000    0.0000 C   0  0  0  0  0  0  0  0  0  0  0  0
   -0.0000   -0.0000    1.5279 C   0  0  0  0  0  0  0  0  0  0  0  0
    1.4333   -0.0000    2.0570 C   0  0  0  0  0  0  0  0  0  0  0  0
    0.7406    1.2355   -0.5093 C   0  0  0  0  0  0  0  0  0  0  0  0
    2.1552    1.3050    0.0637 C   0  0  0  0  0  0  0  0  0  0  0  0
    2.1739    1.2355    1.5477 C   0  0  0  0  0  0  0  0  0  0  0  0
    2.9722    0.2680   -0.5387 N   0  0  0  0  0  0  0  0  0  0  0  0
    4.3023    0.3220   -0.5742 C   0  0  0  0  0  0  0  0  0  0  0  0
    4.8692    1.4024   -0.0795 N   0  0  0  0  0  0  0  0  0  0  0  0
    5.0773   -0.7654   -1.1422 C   0  0  0  0  0  0  0  0  0  0  0  0
    6.2020    1.5211   -0.1376 N   0  0  0  0  0  0  0  0  0  0  0  0
    6.4567   -0.6425   -1.2020 C   0  0  0  0  0  0  0  0  0  0  0  0
    4.5278   -1.9592   -1.6310 C   0  0  0  0  0  0  0  0  0  0  0  0
    7.0356    0.6320   -0.5945 C   0  0  0  0  0  0  0  0  0  0  0  0
    7.3120   -1.6371   -1.6739 C   0  0  0  0  0  0  0  0  0  0  0  0
    5.3739   -2.9415   -2.0989 C   0  0  0  0  0  0  0  0  0  0  0  0
    6.7640   -2.8234   -2.1119 C   0  0  0  0  0  0  0  0  0  0  0  0
    7.6213   -3.7619   -2.5092 F   0  0  0  0  0  0  0  0  0  0  0  0
    8.3723    0.8905   -0.6501 O   0  0  0  0  0  0  0  0  0  0  0  0
    8.7864    2.1654   -0.1868 C   0  0  0  0  0  0  0  0  0  0  0  0
    8.8340    2.2471    1.3381 C   0  0  0  0  0  0  0  0  0  0  0  0
    9.4842    3.5168    1.8853 C   0  0  0  0  0  0  0  0  0  0  0  0
    8.6766    4.7792    1.5878 C   0  0  0  0  0  0  0  0  0  0  0  0
    9.3326    5.9969    2.1947 C   0  0  0  0  0  0  0  0  0  0  0  0
    8.8663    6.6057    3.3590 C   0  0  0  0  0  0  0  0  0  0  0  0
   10.4869    6.5303    1.6232 C   0  0  0  0  0  0  0  0  0  0  0  0
    9.5160    7.6675    3.8935 C   0  0  0  0  0  0  0  0  0  0  0  0
   11.1439    7.6030    2.1669 C   0  0  0  0  0  0  0  0  0  0  0  0
   10.6679    8.1966    3.3131 C   0  0  0  0  0  0  0  0  0  0  0  0
   11.2578    9.2255    3.9679 O   0  0  0  0  0  0  0  0  0  0  0  0
   12.3903    9.8231    3.3966 C   0  0  0  0  0  0  0  0  0  0  0  0
   12.1421   10.5533    2.0777 C   0  0  0  0  0  0  0  0  0  0  0  0
   13.4158   11.1391    1.4703 C   0  0  0  0  0  0  0  0  0  0  0  0
  2  1  1  0
  3  2  1  0
  4  1  1  0
  5  4  1  0
  6  5  1  0
  6  3  1  0
  7  5  1  0
  8  7  1  0
  9  8  2  0
 10  8  1  0
 11  9  1  0
 12 10  2  0
 13 10  1  0
 14 12  1  0
 14 11  2  0
 15 12  1  0
 16 13  2  0
 17 16  1  0
 17 15  2  0
 18 17  1  0
 19 14  1  0
 20 19  1  0
 21 20  1  0
 22 21  1  0
 23 22  1  0
 24 23  1  0
 25 24  2  0
 26 24  1  0
 27 25  1  0
 28 26  2  0
 29 27  2  0
 29 28  1  0
 30 29  1  0
 31 30  1  0
 32 31  1  0
 33 32  1  0
M  END
>  <SMILES>  (41) 
CCCOc1ccc(CCCCOc2nnc(NC3CCCCC3)c3ccc(F)cc23)cc1

>  <scaffold>  (41) 
cyclohexane

$$$$

     RDKit          3D

 31 34  0  0  0  0  0  0  0  0999 V2000
    0.0000    0.0000    0.0000 C   0  0  2  0  0  0  0  0  0  0  0  0
   -0.0000   -0.0000    1.5366 C   0  0  0  0  0  0  0  0  0  0  0  0
    1.4501   -0.0000    2.0450 C   0  0  0  0  0  0  0  0  0  0  0  0
    2.4739    0.0575    0.9005 C   0  0  1  0  0  0  0  0  0  0  0  0
    0.8435   -1.1373   -0.5006 C   0  0  0  0  0  0  0  0  0  0  0  0
    2.0918   -1.1373   -0.0593 C   0  0  0  0  0  0  0  0  0  0  0  0
    2.2201    1.3293    0.0763 C   0  0  0  0  0  0  0  0  0  0  0  0
    0.7906    1.3212   -0.5112 C   0  0  1  0  0  0  0  0  0  0  0  0
    0.7733    1.4015   -1.9600 N   0  0  0  0  0  0  0  0  0  0  0  0
    0.3516    2.4281   -2.7097 C   0  0  0  0  0  0  0  0  0  0  0  0
   -0.0758    3.4342   -2.1950 O   0  0  0  0  0  0  0  0  0  0  0  0
    0.4177    2.1667   -4.0453 O   0  0  0  0  0  0  0  0  0  0  0  0
    0.0905    3.0862   -5.0407 C   0  0  0  0  0  0  0  0  0  0  0  0
   -0.4227    2.5951   -6.2496 C   0  0  0  0  0  0  0  0  0  0  0  0
    0.2926    4.4487   -4.8849 C   0  0  0  0  0  0  0  0  0  0  0  0
   -0.7140    3.4624   -7.2803 C   0  0  0  0  0  0  0  0  0  0  0  0
   -0.0041    5.3249   -5.9279 C   0  0  0  0  0  0  0  0  0  0  0  0
   -0.5535    4.8273   -7.0991 C   0  0  0  0  0  0  0  0  0  0  0  0
   -0.5975    1.1134   -6.4215 C   0  0  0  0  0  0  0  0  0  0  0  0
   -0.9060    5.6632   -8.1471 N   0  0  0  0  0  0  0  0  0  0  0  0
    0.1322    6.6749   -5.8036 O   0  0  0  0  0  0  0  0  0  0  0  0
    0.5671    7.3442   -4.6703 C   0  0  0  0  0  0  0  0  0  0  0  0
    1.5092    8.3524   -4.8026 C   0  0  0  0  0  0  0  0  0  0  0  0
    0.0591    6.9922   -3.4384 C   0  0  0  0  0  0  0  0  0  0  0  0
    1.9297    9.0700   -3.7234 C   0  0  0  0  0  0  0  0  0  0  0  0
    0.4867    7.7223   -2.3404 C   0  0  0  0  0  0  0  0  0  0  0  0
    1.4335    8.8230   -2.4442 C   0  0  0  0  0  0  0  0  0  0  0  0
    1.9657    9.5656   -1.4438 O   0  0  0  0  0  0  0  0  0  0  0  0
    1.6685    9.3178   -0.0794 C   0  0  0  0  0  0  0  0  0  0  0  0
    2.4536   10.2674    0.8241 C   0  0  0  0  0  0  0  0  0  0  0  0
    2.1272   10.0774    2.3045 C   0  0  0  0  0  0  0  0  0  0  0  0
  2  1  1  0
  3  2  1  0
  4  3  1  1
  5  1  1  0
  6  5  2  0
  6  4  1  0
  7  4  1  0
  8  7  1  0
  8  1  1  0
  8  9  1  6
 10  9  1  0
 11 10  2  0
 12 10  1  0
 13 12  1  0
 14 13  2  0
 15 13  1  0
 16 14  1  0
 17 15  2  0
 18 17  1  0
 18 16  2  0
 19 14  1  0
 20 18  1  0
 21 17  1  0
 22 21  1  0
 23 22  2  0
 24 22  1  0
 25 23  1  0
 26 24  2  0
 27 26  1  0
 27 25  2  0
 28 27  1  0
 29 28  1  0
 30 29  1  0
 31 30  1  0
M  END
>  <SMILES>  (42) 
CCCOc1ccc(Oc2cc(OC(=O)NC3CC4C=CC3CC4)c(C)cc2N)cc1

>  <scaffold>  (42) 
cyclohexane

$$$$

     RDKit          3D

 32 33  0  0  0  0  0  0  0  0999 V2000
    0.0000    0.0000    0.0000 C   0  0  0  0  0  0  0  0  0  0  0  0
   -0.0000   -0.0000    1.5279 C   0  0  0  0  0  0  0  0  0  0  0  0
    1.4499   -0.0000    2.0096 C   0  0  0  0  0  0  0  0  0  0  0  0
    0.7406    1.2355   -0.5093 C   0  0  0  0  0  0  0  0  0  0  0  0
    2.2002    1.3073   -0.0637 C   0  0  0  0  0  0  0  0  0  0  0  0
    2.2522    1.1954    1.4592 C   0  0  0  0  0  0  0  0  0  0  0  0
    2.8448    2.5215   -0.5282 N   0  0  0  0  0  0  0  0  0  0  0  0
    4.0268    2.5497   -1.1576 C   0  0  0  0  0  0  0  0  0  0  0  0
    4.6235    1.5643   -1.4981 O   0  0  0  0  0  0  0  0  0  0  0  0
    4.3810    3.8564   -1.4156 O   0  0  0  0  0  0  0  0  0  0  0  0
    5.4896    4.1099   -2.1942 C   0  0  0  0  0  0  0  0  0  0  0  0
    6.2920    5.1780   -1.7685 C   0  0  0  0  0  0  0  0  0  0  0  0
    5.7784    3.4375   -3.3622 C   0  0  0  0  0  0  0  0  0  0  0  0
    7.3849    5.4999   -2.5441 C   0  0  0  0  0  0  0  0  0  0  0  0
    6.8803    3.7616   -4.1382 C   0  0  0  0  0  0  0  0  0  0  0  0
    7.7384    4.7716   -3.6791 C   0  0  0  0  0  0  0  0  0  0  0  0
    9.1339    5.0906   -4.6558 S   0  0  0  0  0  0  0  0  0  0  0  0
    5.9619    5.8296   -0.6276 O   0  0  0  0  0  0  0  0  0  0  0  0
    9.6066    6.7577   -4.0841 C   0  0  0  0  0  0  0  0  0  0  0  0
    6.7711    6.8828   -0.1300 C   0  0  0  0  0  0  0  0  0  0  0  0
    8.0358    6.3489    0.5408 C   0  0  0  0  0  0  0  0  0  0  0  0
    8.8431    7.5165    1.1060 C   0  0  0  0  0  0  0  0  0  0  0  0
   10.0938    7.0305    1.8366 C   0  0  0  0  0  0  0  0  0  0  0  0
   10.8345    8.2290    2.4278 C   0  0  0  0  0  0  0  0  0  0  0  0
   12.0669    7.7906    3.2174 C   0  0  0  0  0  0  0  0  0  0  0  0
   12.8041    9.0323    3.7429 C   0  0  0  0  0  0  0  0  0  0  0  0
   14.0953    8.5434    4.3972 C   0  0  0  0  0  0  0  0  0  0  0  0
   14.8942    9.7491    4.8897 C   0  0  0  0  0  0  0  0  0  0  0  0
   16.1951    9.2116    5.4838 C   0  0  0  0  0  0  0  0  0  0  0  0
   16.9952   10.3581    6.0325 C   0  0  0  0  0  0  0  0  0  0  0  0
   18.3044    9.7761    6.5632 C   0  0  0  0  0  0  0  0  0  0  0  0
   19.1343   10.8987    7.1838 C   0  0  0  0  0  0  0  0  0  0  0  0
  2  1  1  0
  3  2  1  0
  4  1  1  0
  5  4  1  0
  6  5  1  0
  6  3  1  0
  7  5  1  0
  8  7  2  0
  9  8  1  0
 10  8  1  0
 11 10  2  0
 12 11  1  0
 13 11  1  0
 14 12  2  0
 15 13  2  0
 16 15  1  0
 16 14  1  0
 17 16  2  0
 18 12  1  0
 19 17  1  0
 20 18  1  0
 21 20  1  0
 22 21  1  0
 23 22  1  0
 24 23  1  0
 25 24  1  0
 26 25  1  0
 27 26  1  0
 28 27  1  0
 29 28  1  0
 30 29  1  0
 31 30  1  0
 32 31  1  0
M  CHG  4   9  -1  10   1  15  -1  17   1
M  END
>  <SMILES>  (43) 
CCCCCCCCCCCCCOC1=CC(=[S+]C)[C-]=CC1=[O+]C([O-])=NC1CCCCC1

>  <scaffold>  (43) 
cyclohexane

$$$$

     RDKit          3D

 23 25  0  0  0  0  0  0  0  0999 V2000
   -0.0000   -0.0000    0.0000 C   0  0  0  0  0  0  0  0  0  0  0  0
    0.0000    0.0000    1.5279 C   0  0  0  0  0  0  0  0  0  0  0  0
    1.4333   -0.0000    2.0570 C   0  0  0  0  0  0  0  0  0  0  0  0
    0.7406    1.2355   -0.5093 C   0  0  0  0  0  0  0  0  0  0  0  0
    2.1739    1.2355    1.5477 C   0  0  0  0  0  0  0  0  0  0  0  0
    2.1810    1.2355   -0.0000 C   0  0  0  0  0  0  0  0  0  0  0  0
    2.9374    2.3589   -0.4977 N   0  0  0  0  0  0  0  0  0  0  0  0
    2.6809    3.6798   -0.2831 C   0  0  0  0  0  0  0  0  0  0  0  0
    4.0212    2.2205   -1.2458 N   0  0  0  0  0  0  0  0  0  0  0  0
    3.6299    4.3837   -0.9927 C   0  0  0  0  0  0  0  0  0  0  0  0
    4.4526    3.4263   -1.5820 C   0  0  0  0  0  0  0  0  0  0  0  0
    1.6926    4.1193    0.4937 O   0  0  0  0  0  0  0  0  0  0  0  0
    5.5941    3.7951   -2.4568 C   0  0  0  0  0  0  0  0  0  0  0  0
    5.9844    4.9185   -2.7060 O   0  0  0  0  0  0  0  0  0  0  0  0
    6.1001    2.6212   -2.9055 N   0  0  0  0  0  0  0  0  0  0  0  0
    7.2221    2.5449   -3.7159 C   0  0  0  0  0  0  0  0  0  0  0  0
    7.4935    1.2604   -3.9393 N   0  0  0  0  0  0  0  0  0  0  0  0
    8.0431    3.5698   -4.2298 C   0  0  0  0  0  0  0  0  0  0  0  0
    8.4993    1.0687   -4.7307 N   0  0  0  0  0  0  0  0  0  0  0  0
    9.0992    3.3704   -5.0673 C   0  0  0  0  0  0  0  0  0  0  0  0
    9.2609    1.9544   -5.3215 C   0  0  0  0  0  0  0  0  0  0  0  0
   10.5379    1.6421   -6.4048 Cl  0  0  0  0  0  0  0  0  0  0  0  0
    3.7869    5.7057   -1.0262 F   0  0  0  0  0  0  0  0  0  0  0  0
  2  1  1  0
  3  2  1  0
  4  1  1  0
  5  3  1  0
  6  5  1  0
  6  4  1  0
  7  6  1  0
  8  7  1  0
  9  7  1  0
 10  8  2  0
 11 10  1  0
 11  9  2  0
 12  8  1  0
 13 11  1  0
 14 13  2  0
 15 13  1  0
 16 15  1  0
 17 16  2  0
 18 16  1  0
 19 17  1  0
 20 18  2  0
 21 20  1  0
 21 19  2  0
 22 21  1  0
 23 10  1  0
M  END
>  <SMILES>  (44) 
O=C(Nc1ccc(Cl)nn1)c1nn(C2CCCCC2)c(O)c1F

>  <scaffold>  (44) 
cyclohexane

$$$$

     RDKit          3D

 23 25  0  0  0  0  0  0  0  0999 V2000
   -0.0000   -0.0000    0.0000 C   0  0  0  0  0  0  0  0  0  0  0  0
    0.0000   -0.0000    1.5279 C   0  0  0  0  0  0  0  0  0  0  0  0
    1.4333    0.0000    2.0570 C   0  0  0  0  0  0  0  0  0  0  0  0
    2.1739   -1.2355    1.5477 C   0  0  0  0  0  0  0  0  0  0  0  0
    0.7406   -1.2355   -0.5093 C   0  0  0  0  0  0  0  0  0  0  0  0
    2.1951   -1.2410    0.0112 C   0  0  0  0  0  0  0  0  0  0  0  0
    2.8367   -2.4110   -0.5157 N   0  0  0  0  0  0  0  0  0  0  0  0
    4.0082   -2.4055   -1.0996 N   0  0  0  0  0  0  0  0  0  0  0  0
    2.2852   -3.5935   -0.4100 N   0  0  0  0  0  0  0  0  0  0  0  0
    4.2772   -3.6217   -1.3915 N   0  0  0  0  0  0  0  0  0  0  0  0
    3.2278   -4.3606   -0.9728 C   0  0  0  0  0  0  0  0  0  0  0  0
    3.0463   -5.7019   -1.1286 N   0  0  0  0  0  0  0  0  0  0  0  0
    3.9576   -6.6002   -1.6407 C   0  0  0  0  0  0  0  0  0  0  0  0
    3.6188   -7.7472   -1.7531 O   0  0  0  0  0  0  0  0  0  0  0  0
    5.1293   -6.0467   -1.9478 O   0  0  0  0  0  0  0  0  0  0  0  0
    6.2378   -6.7456   -2.5517 C   0  0  2  0  0  0  0  0  0  0  0  0
    5.7864   -7.3287   -3.9200 C   0  0  0  0  0  0  0  0  0  0  0  0
    5.2363   -6.3078   -4.9013 C   0  0  0  0  0  0  0  0  0  0  0  0
    6.7060   -7.8146   -1.6064 C   0  0  0  0  0  0  0  0  0  0  0  0
    6.4424   -7.9719   -0.2708 C   0  0  0  0  0  0  0  0  0  0  0  0
    7.5106   -8.7180   -2.1446 O   0  0  0  0  0  0  0  0  0  0  0  0
    7.1692   -9.1001    0.1354 C   0  0  0  0  0  0  0  0  0  0  0  0
    7.8250   -9.5180   -1.0974 C   0  0  0  0  0  0  0  0  0  0  0  0
  2  1  1  0
  3  2  1  0
  4  3  1  0
  5  1  1  0
  6  5  1  0
  6  4  1  0
  7  6  1  0
  8  7  1  0
  9  7  1  0
 10  8  2  0
 11 10  1  0
 11  9  2  0
 12 11  1  0
 13 12  1  0
 14 13  2  0
 15 13  1  0
 16 15  1  0
 16 17  1  6
 18 17  1  0
 19 16  1  0
 20 19  2  0
 21 19  1  0
 22 20  1  0
 23 22  2  0
 23 21  1  0
M  END
>  <SMILES>  (45) 
CCC(OC(=O)Nc1nnn(C2CCCCC2)n1)c1ccco1

>  <scaffold>  (45) 
cyclohexane

$$$$

     RDKit          3D

 28 30  0  0  0  0  0  0  0  0999 V2000
    0.0000    0.0000   -0.0000 C   0  0  0  0  0  0  0  0  0  0  0  0
   -0.0000    0.0000    1.5279 C   0  0  0  0  0  0  0  0  0  0  0  0
    1.4333    0.0000    2.0570 C   0  0  0  0  0  0  0  0  0  0  0  0
    0.7869    1.1777   -0.5729 C   0  0  0  0  0  0  0  0  0  0  0  0
    2.2247    1.1844    1.4807 C   0  0  0  0  0  0  0  0  0  0  0  0
    2.2256    1.1070   -0.0637 C   0  0  0  0  0  0  0  0  0  0  0  0
    3.0282    2.1786   -0.6234 N   0  0  0  0  0  0  0  0  0  0  0  0
    4.3046    2.0988   -0.9945 C   0  0  0  0  0  0  0  0  0  0  0  0
    4.9203    1.0534   -1.0631 O   0  0  0  0  0  0  0  0  0  0  0  0
    4.9297    3.3230   -1.2713 N   0  0  0  0  0  0  0  0  0  0  0  0
    4.4184    4.5476   -1.0904 C   0  0  0  0  0  0  0  0  0  0  0  0
    3.2331    4.8737   -0.6860 N   0  0  0  0  0  0  0  0  0  0  0  0
    5.2493    5.5754   -1.3882 O   0  0  0  0  0  0  0  0  0  0  0  0
    3.2084    6.2590   -0.7268 C   0  0  0  0  0  0  0  0  0  0  0  0
    4.4839    6.6917   -1.1742 C   0  0  0  0  0  0  0  0  0  0  0  0
    5.1127    8.0247   -1.3540 C   0  0  0  0  0  0  0  0  0  0  0  0
    5.9742    8.3091   -0.1572 C   0  0  0  0  0  0  0  0  0  0  0  0
    7.3139    8.1297   -0.0650 C   0  0  0  0  0  0  0  0  0  0  0  0
    5.5309    8.8182    1.0901 C   0  0  0  0  0  0  0  0  0  0  0  0
    7.7216    8.4504    1.1950 O   0  0  0  0  0  0  0  0  0  0  0  0
    6.6381    8.8640    1.8829 C   0  0  0  0  0  0  0  0  0  0  0  0
    6.8507    9.3540    3.2774 C   0  0  1  0  0  0  0  0  0  0  0  0
    5.9944   10.5947    3.5262 C   0  0  0  0  0  0  0  0  0  0  0  0
    6.4779    8.2798    4.2978 C   0  0  0  0  0  0  0  0  0  0  0  0
    5.5085    8.3442    5.0160 O   0  0  0  0  0  0  0  0  0  0  0  0
    7.3218    7.2517    4.2333 O   0  0  0  0  0  0  0  0  0  0  0  0
    7.0464    6.1545    5.1022 C   0  0  0  0  0  0  0  0  0  0  0  0
    7.4833    6.4228    6.5415 C   0  0  0  0  0  0  0  0  0  0  0  0
  2  1  1  0
  3  2  1  0
  4  1  1  0
  5  3  1  0
  6  5  1  0
  6  4  1  0
  7  6  1  0
  8  7  1  0
  9  8  2  0
 10  8  1  0
 11 10  1  0
 12 11  2  0
 13 11  1  0
 14 12  1  0
 15 14  2  0
 15 13  1  0
 16 15  1  0
 17 16  1  0
 18 17  2  0
 19 17  1  0
 20 18  1  0
 21 20  1  0
 21 19  2  0
 22 21  1  0
 22 23  1  1
 24 22  1  0
 25 24  2  0
 26 24  1  0
 27 26  1  0
 28 27  1  0
M  END
>  <SMILES>  (46) 
CCOC(=O)C(C)c1cc(Cc2cnc(NC(=O)NC3CCCCC3)o2)co1

>  <scaffold>  (46) 
cyclohexane

$$$$

     RDKit          3D

 14 15  0  0  0  0  0  0  0  0999 V2000
    0.0000    0.0000   -0.0000 C   0  0  0  0  0  0  0  0  0  0  0  0
    0.0000    0.0000    1.5279 C   0  0  0  0  0  0  0  0  0  0  0  0
    1.4333    0.0000    2.0570 C   0  0  0  0  0  0  0  0  0  0  0  0
    0.7406    1.2355   -0.5093 C   0  0  0  0  0  0  0  0  0  0  0  0
    2.1739    1.2355    1.5477 C   0  0  0  0  0  0  0  0  0  0  0  0
    2.1259    1.3108    0.0136 C   0  0  0  0  0  0  0  0  0  0  0  0
    2.9290    2.3913   -0.5280 N   0  0  0  0  0  0  0  0  0  0  0  0
    2.7037    3.7170   -0.2258 C   0  0  0  0  0  0  0  0  0  0  0  0
    3.8060    4.4605   -0.2998 N   0  0  0  0  0  0  0  0  0  0  0  0
    1.4832    4.3054    0.0668 C   0  0  0  0  0  0  0  0  0  0  0  0
    3.6991    5.7921   -0.0748 C   0  0  0  0  0  0  0  0  0  0  0  0
    1.3772    5.6749    0.3050 C   0  0  0  0  0  0  0  0  0  0  0  0
    2.5135    6.4425    0.2298 C   0  0  0  0  0  0  0  0  0  0  0  0
    4.9124    6.3881   -0.2460 O   0  0  0  0  0  0  0  0  0  0  0  0
  2  1  1  0
  3  2  1  0
  4  1  1  0
  5  3  1  0
  6  5  1  0
  6  4  1  0
  7  6  1  0
  8  7  1  0
  9  8  2  0
 10  8  1  0
 11  9  1  0
 12 10  2  0
 13 12  1  0
 13 11  2  0
 14 11  1  0
M  END
>  <SMILES>  (47) 
Oc1cccc(NC2CCCCC2)n1

>  <scaffold>  (47) 
cyclohexane

$$$$

     RDKit          3D

 25 26  0  0  0  0  0  0  0  0999 V2000
   -0.0000   -0.0000   -0.0000 C   0  0  0  0  0  0  0  0  0  0  0  0
   -0.0000   -0.0000    1.5279 C   0  0  0  0  0  0  0  0  0  0  0  0
    1.4333    0.0000    2.0570 C   0  0  0  0  0  0  0  0  0  0  0  0
    0.7406    1.2355   -0.5093 C   0  0  0  0  0  0  0  0  0  0  0  0
    2.1739    1.2355    1.5477 C   0  0  0  0  0  0  0  0  0  0  0  0
    2.1810    1.2355    0.0000 C   0  0  0  0  0  0  0  0  0  0  0  0
    2.9418    2.3654   -0.5006 N   0  0  0  0  0  0  0  0  0  0  0  0
    4.0719    2.2823   -1.2001 C   0  0  0  0  0  0  0  0  0  0  0  0
    4.5920    1.2540   -1.5631 O   0  0  0  0  0  0  0  0  0  0  0  0
    4.6928    3.4989   -1.5505 N   0  0  0  0  0  0  0  0  0  0  0  0
    4.3235    4.7674   -1.2170 C   0  0  0  0  0  0  0  0  0  0  0  0
    3.3680    5.0430   -0.5431 O   0  0  0  0  0  0  0  0  0  0  0  0
    5.2264    5.6064   -1.7213 O   0  0  0  0  0  0  0  0  0  0  0  0
    5.1698    6.9755   -1.5124 C   0  0  0  0  0  0  0  0  0  0  0  0
    4.7755    7.4937   -0.2887 C   0  0  0  0  0  0  0  0  0  0  0  0
    5.5753    7.7513   -2.5975 C   0  0  0  0  0  0  0  0  0  0  0  0
    4.8107    8.8756   -0.1867 C   0  0  0  0  0  0  0  0  0  0  0  0
    5.5828    9.1258   -2.4182 C   0  0  0  0  0  0  0  0  0  0  0  0
    5.2625    9.7292   -1.1921 C   0  0  0  0  0  0  0  0  0  0  0  0
    4.3911    9.5109    0.9621 O   0  0  0  0  0  0  0  0  0  0  0  0
    3.9683    8.9852    2.1281 C   0  0  0  0  0  0  0  0  0  0  0  0
    4.0030    7.8092    2.3708 O   0  0  0  0  0  0  0  0  0  0  0  0
    3.5122    9.9516    2.9228 O   0  0  0  0  0  0  0  0  0  0  0  0
    3.0712    9.6021    4.2247 C   0  0  0  0  0  0  0  0  0  0  0  0
    1.6459    9.0553    4.2849 C   0  0  0  0  0  0  0  0  0  0  0  0
  2  1  1  0
  3  2  1  0
  4  1  1  0
  5  3  1  0
  6  5  1  0
  6  4  1  0
  7  6  1  0
  8  7  1  0
  9  8  2  0
 10  8  1  0
 11 10  1  0
 12 11  2  0
 13 11  1  0
 14 13  1  0
 15 14  2  0
 16 14  1  0
 17 15  1  0
 18 16  2  0
 19 17  2  0
 19 18  1  0
 20 17  1  0
 21 20  1  0
 22 21  2  0
 23 21  1  0
 24 23  1  0
 25 24  1  0
M  END
>  <SMILES>  (48) 
CCOC(=O)Oc1cccc(OC(=O)NC(=O)NC2CCCCC2)c1

>  <scaffold>  (48) 
cyclohexane

$$$$

     RDKit          3D

 21 23  0  0  0  0  0  0  0  0999 V2000
    0.0000    0.0000    0.0000 C   0  0  0  0  0  0  0  0  0  0  0  0
    0.0000    0.0000    1.5279 C   0  0  0  0  0  0  0  0  0  0  0  0
    1.4333    0.0000    2.0570 C   0  0  0  0  0  0  0  0  0  0  0  0
    2.1739    1.2355    1.5477 C   0  0  0  0  0  0  0  0  0  0  0  0
    0.7406    1.2355   -0.5093 C   0  0  0  0  0  0  0  0  0  0  0  0
    2.1951    1.2410    0.0112 C   0  0  0  0  0  0  0  0  0  0  0  0
    2.9340    2.3710   -0.5207 N   0  0  0  0  0  0  0  0  0  0  0  0
    4.1923    2.2668   -1.0118 C   0  0  0  0  0  0  0  0  0  0  0  0
    4.7868    1.2257   -1.1616 O   0  0  0  0  0  0  0  0  0  0  0  0
    4.7515    3.4662   -1.4245 N   0  0  0  0  0  0  0  0  0  0  0  0
    5.9757    3.6237   -2.0015 C   0  0  0  0  0  0  0  0  0  0  0  0
    6.5160    4.7136   -2.4428 N   0  0  0  0  0  0  0  0  0  0  0  0
    6.7787    2.5436   -2.1565 O   0  0  0  0  0  0  0  0  0  0  0  0
    7.7027    4.3916   -2.9738 N   0  0  0  0  0  0  0  0  0  0  0  0
    7.8196    3.1476   -2.7955 C   0  0  0  0  0  0  0  0  0  0  0  0
    8.9366    2.2629   -3.2126 C   0  0  0  0  0  0  0  0  0  0  0  0
    8.5296    1.4387   -4.3894 C   0  0  0  0  0  0  0  0  0  0  0  0
    7.8849    0.2384   -4.3784 C   0  0  0  0  0  0  0  0  0  0  0  0
    8.7410    1.9912   -6.0289 S   0  0  0  0  0  0  0  0  0  0  0  0
    7.6020   -0.2434   -5.6644 C   0  0  0  0  0  0  0  0  0  0  0  0
    8.0005    0.5711   -6.6909 C   0  0  0  0  0  0  0  0  0  0  0  0
  2  1  1  0
  3  2  1  0
  4  3  1  0
  5  1  1  0
  6  5  1  0
  6  4  1  0
  7  6  1  0
  8  7  1  0
  9  8  2  0
 10  8  1  0
 11 10  1  0
 12 11  2  0
 13 11  1  0
 14 12  1  0
 15 14  2  0
 15 13  1  0
 16 15  1  0
 17 16  1  0
 18 17  2  0
 19 17  1  0
 20 18  1  0
 21 20  2  0
 21 19  1  0
M  END
>  <SMILES>  (49) 
O=C(Nc1nnc(Cc2cccs2)o1)NC1CCCCC1

>  <scaffold>  (49) 
cyclohexane

$$$$

     RDKit          3D

 31 33  0  0  0  0  0  0  0  0999 V2000
   -0.0000    0.0000   -0.0000 C   0  0  0  0  0  0  0  0  0  0  0  0
    0.0000    0.0000    1.5279 C   0  0  0  0  0  0  0  0  0  0  0  0
    1.4333    0.0000    2.0570 C   0  0  0  0  0  0  0  0  0  0  0  0
    0.7869    1.1777   -0.5729 C   0  0  0  0  0  0  0  0  0  0  0  0
    2.2256    1.1070   -0.0637 C   0  0  0  0  0  0  0  0  0  0  0  0
    2.2569    1.1680    1.4627 C   0  0  0  0  0  0  0  0  0  0  0  0
    2.9884    2.2175   -0.5323 N   0  0  0  0  0  0  0  0  0  0  0  0
    3.2167    2.4661   -1.7971 N   0  0  0  0  0  0  0  0  0  0  0  0
    3.5555    3.0761    0.2889 N   0  0  0  0  0  0  0  0  0  0  0  0
    3.9726    3.5067   -1.8337 N   0  0  0  0  0  0  0  0  0  0  0  0
    4.1819    3.8822   -0.5543 C   0  0  0  0  0  0  0  0  0  0  0  0
    4.9888    4.9413   -0.2648 N   0  0  0  0  0  0  0  0  0  0  0  0
    5.3692    5.4570    0.9643 C   0  0  0  0  0  0  0  0  0  0  0  0
    6.0605    6.4393    0.9800 O   0  0  0  0  0  0  0  0  0  0  0  0
    4.9205    4.7884    2.0346 O   0  0  0  0  0  0  0  0  0  0  0  0
    5.1104    5.1249    3.3741 C   0  0  0  0  0  0  0  0  0  0  0  0
    5.5338    6.3866    3.7616 C   0  0  0  0  0  0  0  0  0  0  0  0
    4.8571    4.1788    4.3550 C   0  0  0  0  0  0  0  0  0  0  0  0
    5.6343    6.6154    5.1251 C   0  0  0  0  0  0  0  0  0  0  0  0
    4.9568    4.4100    5.7262 C   0  0  0  0  0  0  0  0  0  0  0  0
    5.3502    5.6982    6.1359 C   0  0  0  0  0  0  0  0  0  0  0  0
    4.6871    3.1690    6.9054 Cl  0  0  0  0  0  0  0  0  0  0  0  0
    5.4376    6.0606    7.4546 O   0  0  0  0  0  0  0  0  0  0  0  0
    6.7105    5.8757    8.0521 C   0  0  0  0  0  0  0  0  0  0  0  0
    7.1014    4.4031    8.1662 C   0  0  0  0  0  0  0  0  0  0  0  0
    8.4096    4.2576    8.9420 C   0  0  0  0  0  0  0  0  0  0  0  0
    8.8734    2.8050    9.0372 C   0  0  0  0  0  0  0  0  0  0  0  0
   10.2069    2.6112    9.7573 C   0  0  0  0  0  0  0  0  0  0  0  0
   10.4938    1.2487    9.8268 O   0  0  0  0  0  0  0  0  0  0  0  0
   11.6806    0.9361   10.5214 C   0  0  0  0  0  0  0  0  0  0  0  0
   11.9204   -0.5699   10.6159 C   0  0  0  0  0  0  0  0  0  0  0  0
  2  1  1  0
  3  2  1  0
  4  1  1  0
  5  4  1  0
  6  5  1  0
  6  3  1  0
  7  5  1  0
  8  7  1  0
  9  7  1  0
 10  8  2  0
 11 10  1  0
 11  9  2  0
 12 11  1  0
 13 12  1  0
 14 13  2  0
 15 13  1  0
 16 15  1  0
 17 16  2  0
 18 16  1  0
 19 17  1  0
 20 18  2  0
 21 20  1  0
 21 19  2  0
 22 20  1  0
 23 21  1  0
 24 23  1  0
 25 24  1  0
 26 25  1  0
 27 26  1  0
 28 27  1  0
 29 28  1  0
 30 29  1  0
 31 30  1  0
M  END
>  <SMILES>  (50) 
CCOCCCCCOc1ccc(OC(=O)Nc2nnn(C3CCCCC3)n2)cc1Cl

>  <scaffold>  (50) 
cyclohexane

$$$$
