
     RDKit          3D

 22 24  0  0  0  0  0  0  0  0999 V2000
    0.0000    0.0000   -0.0000 C   0  0  0  0  0  0  0  0  0  0  0  0
   -0.0000   -0.0000    1.3782 C   0  0  0  0  0  0  0  0  0  0  0  0
    1.3522   -0.0000    1.7786 C   0  0  0  0  0  0  0  0  0  0  0  0
    1.2959   -0.0000   -0.3951 O   0  0  0  0  0  0  0  0  0  0  0  0
    2.1326   -0.0506    0.6495 C   0  0  0  0  0  0  0  0  0  0  0  0
   -1.1263   -0.0000   -0.9018 C   0  0  0  0  0  0  0  0  0  0  0  0
   -2.3285   -0.0591   -0.3501 N   0  0  0  0  0  0  0  0  0  0  0  0
   -0.9184    0.0557   -2.2954 C   0  0  0  0  0  0  0  0  0  0  0  0
   -3.3740   -0.0145   -1.1240 N   0  0  0  0  0  0  0  0  0  0  0  0
   -2.0127    0.1026   -3.1058 C   0  0  0  0  0  0  0  0  0  0  0  0
   -3.3159    0.0872   -2.4429 C   0  0  0  0  0  0  0  0  0  0  0  0
   -4.7524    0.2051   -3.4229 S   0  0  0  0  0  0  0  0  0  0  0  0
   -6.0280    0.0713   -2.1252 C   0  0  0  0  0  0  0  0  0  0  0  0
   -6.2068   -1.3671   -1.7003 C   0  0  0  0  0  0  0  0  0  0  0  0
   -7.4856   -1.6965   -0.9671 C   0  0  0  0  0  0  0  0  0  0  0  0
   -8.0189   -2.9840   -1.0070 C   0  0  0  0  0  0  0  0  0  0  0  0
   -8.1172   -0.7199   -0.1984 C   0  0  0  0  0  0  0  0  0  0  0  0
   -9.1551   -3.3433   -0.3145 C   0  0  0  0  0  0  0  0  0  0  0  0
   -9.2415   -1.0766    0.4838 C   0  0  0  0  0  0  0  0  0  0  0  0
   -9.8204   -2.4001    0.4673 C   0  0  0  0  0  0  0  0  0  0  0  0
  -10.9177   -2.6477    1.2361 O   0  0  0  0  0  0  0  0  0  0  0  0
  -11.4197   -3.9569    1.2424 C   0  0  0  0  0  0  0  0  0  0  0  0
  2  1  2  0
  3  2  1  0
  4  1  1  0
  5  4  1  0
  5  3  2  0
  6  1  1  0
  7  6  2  0
  8  6  1  0
  9  7  1  0
 10  8  2  0
 11 10  1  0
 11  9  2  0
 12 11  1  0
 13 12  1  0
 14 13  1  0
 15 14  1  0
 16 15  2  0
 17 15  1  0
 18 16  1  0
 19 17  2  0
 20 19  1  0
 20 18  2  0
 21 20  1  0
 22 21  1  0
M  END
>  <SMILES>  (1) 
COc1ccc(CCSc2ccc(-c3ccco3)nn2)cc1

>  <scaffold>  (1) 
furan

$$$$

     RDKit          3D

 29 30  0  0  0  0  0  0  0  0999 V2000
    0.0000    0.0000    0.0000 C   0  0  0  0  0  0  0  0  0  0  0  0
   -0.0000    0.0000    1.3625 C   0  0  0  0  0  0  0  0  0  0  0  0
    1.2487    0.0000    1.8470 O   0  0  0  0  0  0  0  0  0  0  0  0
    1.3489   -0.0000   -0.4113 C   0  0  0  0  0  0  0  0  0  0  0  0
    2.0853   -0.0527    0.7432 C   0  0  0  0  0  0  0  0  0  0  0  0
    3.5502   -0.1339    0.9074 C   0  0  0  0  0  0  0  0  0  0  0  0
    4.3379   -0.1664   -0.0172 O   0  0  0  0  0  0  0  0  0  0  0  0
    3.9700   -0.1174    2.1873 N   0  0  0  0  0  0  0  0  0  0  0  0
    5.3663   -0.2452    2.5612 C   0  0  1  0  0  0  0  0  0  0  0  0
    5.7820    0.7242    3.6666 C   0  0  0  0  0  0  0  0  0  0  0  0
    5.6202   -1.6632    2.9546 C   0  0  0  0  0  0  0  0  0  0  0  0
    5.6464   -2.1316    4.1448 N   0  0  0  0  0  0  0  0  0  0  0  0
    5.8447   -2.8707    1.7038 S   0  0  0  0  0  0  0  0  0  0  0  0
    5.8478   -3.4764    4.2320 C   0  0  0  0  0  0  0  0  0  0  0  0
    5.9793   -4.0282    2.9865 C   0  0  0  0  0  0  0  0  0  0  0  0
    5.9549   -4.1196    5.3671 O   0  0  0  0  0  0  0  0  0  0  0  0
    6.1397   -5.3688    2.6730 N   0  0  0  0  0  0  0  0  0  0  0  0
    6.2634   -5.8796    1.4493 C   0  0  0  0  0  0  0  0  0  0  0  0
    6.2450   -5.1786    0.4570 O   0  0  0  0  0  0  0  0  0  0  0  0
    6.4557   -7.2046    1.4848 O   0  0  0  0  0  0  0  0  0  0  0  0
    6.6571   -7.8596    0.2430 C   0  0  0  0  0  0  0  0  0  0  0  0
    8.0373   -7.6111   -0.3635 C   0  0  0  0  0  0  0  0  0  0  0  0
    9.1561   -8.0713    0.5697 C   0  0  0  0  0  0  0  0  0  0  0  0
   10.5120   -7.7517   -0.0577 C   0  0  0  0  0  0  0  0  0  0  0  0
   11.6666   -8.1438    0.8628 C   0  0  0  0  0  0  0  0  0  0  0  0
   13.0043   -7.8533    0.1646 C   0  0  0  0  0  0  0  0  0  0  0  0
   14.1934   -8.2796    1.0241 C   0  0  0  0  0  0  0  0  0  0  0  0
   15.4933   -8.0204    0.2643 C   0  0  0  0  0  0  0  0  0  0  0  0
   16.6990   -8.4762    1.0519 C   0  0  0  0  0  0  0  0  0  0  0  0
  2  1  2  0
  3  2  1  0
  4  1  1  0
  5  4  2  0
  5  3  1  0
  6  5  1  0
  7  6  2  0
  8  6  1  0
  9  8  1  0
  9 10  1  1
 11  9  1  0
 12 11  2  0
 13 11  1  0
 14 12  1  0
 15 14  2  0
 15 13  1  0
 16 14  1  0
 17 15  1  0
 18 17  1  0
 19 18  2  0
 20 18  1  0
 21 20  1  0
 22 21  1  0
 23 22  1  0
 24 23  1  0
 25 24  1  0
 26 25  1  0
 27 26  1  0
 28 27  1  0
 29 28  1  0
M  END
>  <SMILES>  (2) 
CCCCCCCCCOC(=O)Nc1sc(C(C)NC(=O)c2ccco2)nc1O

>  <scaffold>  (2) 
furan

$$$$

     RDKit          3D

 24 26  0  0  0  0  0  0  0  0999 V2000
    0.0000   -0.0000   -0.0000 C   0  0  0  0  0  0  0  0  0  0  0  0
    0.0000   -0.0000    1.3782 C   0  0  0  0  0  0  0  0  0  0  0  0
    1.3522   -0.0000    1.7786 C   0  0  0  0  0  0  0  0  0  0  0  0
    1.3033   -0.0000   -0.3974 O   0  0  0  0  0  0  0  0  0  0  0  0
    2.1448    0.0509    0.6532 C   0  0  0  0  0  0  0  0  0  0  0  0
   -1.1328   -0.0000   -0.9070 C   0  0  0  0  0  0  0  0  0  0  0  0
   -2.3281   -0.0587   -0.3584 N   0  0  0  0  0  0  0  0  0  0  0  0
   -0.9249    0.0557   -2.3006 C   0  0  0  0  0  0  0  0  0  0  0  0
   -3.3953   -0.1146   -1.0619 N   0  0  0  0  0  0  0  0  0  0  0  0
   -2.0681   -0.0036   -3.0539 C   0  0  0  0  0  0  0  0  0  0  0  0
   -3.3346   -0.1153   -2.3695 C   0  0  0  0  0  0  0  0  0  0  0  0
    3.4687    0.1144    0.5243 O   0  0  0  0  0  0  0  0  0  0  0  0
   -4.8522   -0.2589   -3.2948 S   0  0  0  0  0  0  0  0  0  0  0  0
   -6.1062   -0.1665   -2.0159 C   0  0  0  0  0  0  0  0  0  0  0  0
   -6.2353    0.9449   -1.1975 C   0  0  0  0  0  0  0  0  0  0  0  0
   -6.9906   -1.1977   -1.8359 C   0  0  0  0  0  0  0  0  0  0  0  0
   -7.2455    0.9908   -0.2611 C   0  0  0  0  0  0  0  0  0  0  0  0
   -8.0069   -1.1501   -0.8944 C   0  0  0  0  0  0  0  0  0  0  0  0
   -8.1702   -0.0490   -0.1756 C   0  0  0  0  0  0  0  0  0  0  0  0
   -9.1345    0.1311    0.7363 O   0  0  0  0  0  0  0  0  0  0  0  0
  -10.1151   -0.8919    0.9599 C   0  0  0  0  0  0  0  0  0  0  0  0
   -9.5525   -2.0391    1.7815 C   0  0  0  0  0  0  0  0  0  0  0  0
  -10.7950   -3.2921    2.2457 S   0  0  0  0  0  0  0  0  0  0  0  0
  -10.0180   -4.0113    3.7446 C   0  0  0  0  0  0  0  0  0  0  0  0
  2  1  2  0
  3  2  1  0
  4  1  1  0
  5  4  1  0
  5  3  2  0
  6  1  1  0
  7  6  2  0
  8  6  1  0
  9  7  1  0
 10  8  2  0
 11 10  1  0
 11  9  2  0
 12  5  1  0
 13 11  1  0
 14 13  1  0
 15 14  2  0
 16 14  1  0
 17 15  1  0
 18 16  2  0
 19 18  1  0
 19 17  2  0
 20 19  1  0
 21 20  1  0
 22 21  1  0
 23 22  1  0
 24 23  1  0
M  END
>  <SMILES>  (3) 
CSCCOc1ccc(Sc2ccc(-c3ccc(O)o3)nn2)cc1

>  <scaffold>  (3) 
furan

$$$$

     RDKit          3D

 23 25  0  0  0  0  0  0  0  0999 V2000
   -0.0000    0.0000    0.0000 C   0  0  0  0  0  0  0  0  0  0  0  0
    0.0000    0.0000    1.3704 C   0  0  0  0  0  0  0  0  0  0  0  0
    1.3664   -0.0000    1.7506 C   0  0  0  0  0  0  0  0  0  0  0  0
    1.2559    0.0000   -0.5080 O   0  0  0  0  0  0  0  0  0  0  0  0
    2.0974    0.0509    0.5426 C   0  0  0  0  0  0  0  0  0  0  0  0
   -1.0759   -0.0000   -0.8614 N   0  0  0  0  0  0  0  0  0  0  0  0
   -2.4085    0.0000   -0.5775 C   0  0  0  0  0  0  0  0  0  0  0  0
   -2.8557    0.0000    0.5448 O   0  0  0  0  0  0  0  0  0  0  0  0
   -3.3030    0.0591   -1.7718 C   0  0  0  0  0  0  0  0  0  0  0  0
   -4.5508    0.6675   -1.6439 C   0  0  0  0  0  0  0  0  0  0  0  0
   -2.9085   -0.4798   -3.0046 C   0  0  0  0  0  0  0  0  0  0  0  0
   -5.4889    0.7367   -2.6621 C   0  0  0  0  0  0  0  0  0  0  0  0
   -3.8413   -0.4113   -4.0170 C   0  0  0  0  0  0  0  0  0  0  0  0
   -5.1495    0.1087   -3.8318 C   0  0  0  0  0  0  0  0  0  0  0  0
   -6.4207    0.1777   -5.0806 S   0  0  0  0  0  6  0  0  0  0  0  0
   -7.2891    1.3238   -4.9618 O   0  0  0  0  0  0  0  0  0  0  0  0
   -5.7231    0.0002   -6.3501 O   0  0  0  0  0  0  0  0  0  0  0  0
   -7.3485   -1.3318   -4.8021 C   0  0  0  0  0  0  0  0  0  0  0  0
   -7.0728   -2.4530   -5.5548 C   0  0  0  0  0  0  0  0  0  0  0  0
   -8.3206   -1.3767   -3.8150 C   0  0  0  0  0  0  0  0  0  0  0  0
   -7.7815   -3.6097   -5.2700 C   0  0  0  0  0  0  0  0  0  0  0  0
   -9.0239   -2.5277   -3.5319 C   0  0  0  0  0  0  0  0  0  0  0  0
   -8.6967   -3.6801   -4.2313 C   0  0  0  0  0  0  0  0  0  0  0  0
  2  1  2  0
  3  2  1  0
  4  1  1  0
  5  4  1  0
  5  3  2  0
  6  1  1  0
  7  6  1  0
  8  7  2  0
  9  7  1  0
 10  9  2  0
 11  9  1  0
 12 10  1  0
 13 11  2  0
 14 12  2  0
 14 13  1  0
 15 14  1  0
 16 15  2  0
 17 15  2  0
 18 15  1  0
 19 18  2  0
 20 18  1  0
 21 19  1  0
 22 20  2  0
 23 22  1  0
 23 21  2  0
M  END
>  <SMILES>  (4) 
O=C(Nc1ccco1)c1ccc(S(=O)(=O)c2ccccc2)cc1

>  <scaffold>  (4) 
furan

$$$$

     RDKit          3D

 29 32  0  0  0  0  0  0  0  0999 V2000
   -0.0000   -0.0000   -0.0000 C   0  0  0  0  0  0  0  0  0  0  0  0
    0.0000    0.0000    1.3625 C   0  0  0  0  0  0  0  0  0  0  0  0
    1.2487   -0.0000    1.8470 O   0  0  0  0  0  0  0  0  0  0  0  0
    1.3489   -0.0000   -0.4113 C   0  0  0  0  0  0  0  0  0  0  0  0
    2.0895    0.0530    0.7498 C   0  0  0  0  0  0  0  0  0  0  0  0
    3.5212    0.1323    0.9103 C   0  0  0  0  0  0  0  0  0  0  0  0
    4.1677    0.2371    2.1775 C   0  0  0  0  0  0  0  0  0  0  0  0
    4.3274    0.1040   -0.1206 N   0  0  0  0  0  0  0  0  0  0  0  0
    5.4663    0.3311    1.7758 C   0  0  0  0  0  0  0  0  0  0  0  0
    5.5455    0.2507    0.4165 O   0  0  0  0  0  0  0  0  0  0  0  0
    6.6671    0.5204    2.5683 C   0  0  0  0  0  0  0  0  0  0  0  0
    7.8831    0.6380    1.8968 C   0  0  0  0  0  0  0  0  0  0  0  0
    6.6613    0.6413    3.9491 C   0  0  0  0  0  0  0  0  0  0  0  0
    9.0566    0.8708    2.6126 C   0  0  0  0  0  0  0  0  0  0  0  0
    7.8295    0.8705    4.6592 C   0  0  0  0  0  0  0  0  0  0  0  0
    9.0211    0.9270    3.9972 C   0  0  0  0  0  0  0  0  0  0  0  0
   10.1649    1.0183    1.8476 O   0  0  0  0  0  0  0  0  0  0  0  0
   11.3681    1.3058    2.5247 C   0  0  0  0  0  0  0  0  0  0  0  0
   12.4093    1.4742    1.4313 C   0  0  2  0  0  0  0  0  0  0  0  0
   14.1131    1.8055    2.3050 Br  0  0  0  0  0  0  0  0  0  0  0  0
   12.0771    2.6088    0.4912 C   0  0  0  0  0  0  0  0  0  0  0  0
   11.6147    2.3668   -0.7844 C   0  0  0  0  0  0  0  0  0  0  0  0
   12.1447    3.9059    0.9975 C   0  0  0  0  0  0  0  0  0  0  0  0
   11.2762    3.4399   -1.5939 C   0  0  0  0  0  0  0  0  0  0  0  0
   11.8027    4.9698    0.1907 C   0  0  0  0  0  0  0  0  0  0  0  0
   11.3420    4.7318   -1.1182 C   0  0  0  0  0  0  0  0  0  0  0  0
   11.7779    6.2733    0.5866 O   0  0  0  0  0  0  0  0  0  0  0  0
   12.0588    6.6191    1.9331 C   0  0  0  0  0  0  0  0  0  0  0  0
   11.0482    5.7518   -1.9601 F   0  0  0  0  0  0  0  0  0  0  0  0
  2  1  2  0
  3  2  1  0
  4  1  1  0
  5  4  2  0
  5  3  1  0
  6  5  1  0
  7  6  1  0
  8  6  2  0
  9  7  2  0
 10  8  1  0
 10  9  1  0
 11  9  1  0
 12 11  2  0
 13 11  1  0
 14 12  1  0
 15 13  2  0
 16 15  1  0
 16 14  2  0
 17 14  1  0
 18 17  1  0
 19 18  1  0
 19 20  1  1
 21 19  1  0
 22 21  2  0
 23 21  1  0
 24 22  1  0
 25 23  2  0
 26 25  1  0
 26 24  2  0
 27 25  1  0
 28 27  1  0
 29 26  1  0
M  END
>  <SMILES>  (5) 
COc1cc(C(Br)COc2cccc(-c3cc(-c4ccco4)no3)c2)ccc1F

>  <scaffold>  (5) 
furan

$$$$

     RDKit          3D

 26 28  0  0  0  0  0  0  0  0999 V2000
    0.0000    0.0000   -0.0000 C   0  0  0  0  0  0  0  0  0  0  0  0
   -0.0000    0.0000    1.3704 C   0  0  0  0  0  0  0  0  0  0  0  0
    1.3522   -0.0000    1.7707 C   0  0  0  0  0  0  0  0  0  0  0  0
    1.2831   -0.0630   -0.4542 O   0  0  0  0  0  0  0  0  0  0  0  0
    2.1212   -0.0535    0.5904 C   0  0  0  0  0  0  0  0  0  0  0  0
   -1.2045   -0.0592   -0.8661 C   0  0  0  0  0  0  0  0  0  0  0  0
   -2.3188   -0.2245   -0.4104 O   0  0  0  0  0  0  0  0  0  0  0  0
   -0.9070    0.1113   -2.1768 N   0  0  0  0  0  0  0  0  0  0  0  0
   -1.8941   -0.0686   -3.2137 C   0  0  0  0  0  0  0  0  0  0  0  0
   -1.6882   -1.3707   -3.9151 C   0  0  0  0  0  0  0  0  0  0  0  0
   -2.7561   -2.0306   -4.3362 O   0  0  0  0  0  0  0  0  0  0  0  0
   -0.5551   -2.1073   -4.2230 C   0  0  0  0  0  0  0  0  0  0  0  0
   -2.3088   -3.1226   -4.9696 N   0  0  0  0  0  0  0  0  0  0  0  0
   -0.9920   -3.2210   -4.9388 C   0  0  0  0  0  0  0  0  0  0  0  0
   -0.2831   -4.4103   -5.4982 C   0  0  0  0  0  0  0  0  0  0  0  0
   -0.8565   -5.0985   -6.5665 O   0  0  0  0  0  0  0  0  0  0  0  0
   -1.0296   -4.3644   -7.7295 C   0  0  0  0  0  0  0  0  0  0  0  0
   -0.4784   -3.1211   -7.9973 C   0  0  0  0  0  0  0  0  0  0  0  0
   -1.7822   -5.0293   -8.6850 C   0  0  0  0  0  0  0  0  0  0  0  0
   -0.6796   -2.5197   -9.2032 C   0  0  0  0  0  0  0  0  0  0  0  0
   -1.9782   -4.4218   -9.9065 C   0  0  0  0  0  0  0  0  0  0  0  0
   -1.4368   -3.1136  -10.2119 C   0  0  0  0  0  0  0  0  0  0  0  0
   -1.7095   -2.2733  -11.7028 Cl  0  0  0  0  0  0  0  0  0  0  0  0
   -2.7548   -5.2061  -10.9250 C   0  0  0  0  0  0  0  0  0  0  0  0
   -2.2008   -6.6130  -11.0709 C   0  0  0  0  0  0  0  0  0  0  0  0
   -2.8403   -7.6181  -10.9164 O   0  0  0  0  0  0  0  0  0  0  0  0
  2  1  2  0
  3  2  1  0
  4  1  1  0
  5  4  1  0
  5  3  2  0
  6  1  1  0
  7  6  2  0
  8  6  1  0
  9  8  1  0
 10  9  1  0
 11 10  1  0
 12 10  2  0
 13 11  1  0
 14 13  2  0
 14 12  1  0
 15 14  1  0
 16 15  1  0
 17 16  1  0
 18 17  2  0
 19 17  1  0
 20 18  1  0
 21 19  2  0
 22 21  1  0
 22 20  2  0
 23 22  1  0
 24 21  1  0
 25 24  1  0
 26 25  2  0
M  END
>  <SMILES>  (6) 
O=CCc1cc(OCc2cc(CNC(=O)c3ccco3)on2)ccc1Cl

>  <scaffold>  (6) 
furan

$$$$

     RDKit          3D

 32 33  0  0  0  0  0  0  0  0999 V2000
   -0.0000   -0.0000    0.0000 C   0  0  0  0  0  0  0  0  0  0  0  0
    0.0000    0.0000    1.3625 C   0  0  0  0  0  0  0  0  0  0  0  0
    1.2565    0.0000    1.8264 O   0  0  0  0  0  0  0  0  0  0  0  0
    1.3566   -0.0000   -0.4137 C   0  0  0  0  0  0  0  0  0  0  0  0
    2.0888    0.0524    0.7342 C   0  0  0  0  0  0  0  0  0  0  0  0
    3.5621    0.1340    0.8994 C   0  0  0  0  0  0  0  0  0  0  0  0
    4.1456    1.3744    0.3984 N   0  0  0  0  0  0  0  0  0  0  0  0
    3.7446    2.6088    0.8131 C   0  0  0  0  0  0  0  0  0  0  0  0
    4.5335    3.9098    0.2103 S   0  0  0  0  0  0  0  0  0  0  0  0
    2.7749    2.5851    1.7144 O   0  0  0  0  0  0  0  0  0  0  0  0
    2.2293    3.8153    2.1875 C   0  0  0  0  0  0  0  0  0  0  0  0
    0.9283    3.5023    2.9066 C   0  0  0  0  0  0  0  0  0  0  0  0
    0.2286    4.7992    3.3104 C   0  0  0  0  0  0  0  0  0  0  0  0
   -1.1029    4.4294    3.9824 C   0  0  0  0  0  0  0  0  0  0  0  0
   -1.7237    5.7294    4.4066 C   0  0  0  0  0  0  0  0  0  0  0  0
   -1.5361    6.1992    5.6972 C   0  0  0  0  0  0  0  0  0  0  0  0
   -2.5041    6.4681    3.5310 C   0  0  0  0  0  0  0  0  0  0  0  0
   -2.0505    7.4236    6.1214 C   0  0  0  0  0  0  0  0  0  0  0  0
   -3.0152    7.6859    3.9518 C   0  0  0  0  0  0  0  0  0  0  0  0
   -2.7222    8.2079    5.1848 C   0  0  0  0  0  0  0  0  0  0  0  0
   -1.9794    7.9584    7.3557 O   0  0  0  0  0  0  0  0  0  0  0  0
   -1.3699    7.1935    8.3715 C   0  0  0  0  0  0  0  0  0  0  0  0
   -1.4849    8.0136    9.6555 C   0  0  0  0  0  0  0  0  0  0  0  0
   -0.7139    7.2945   10.7613 C   0  0  0  0  0  0  0  0  0  0  0  0
   -0.8139    8.1786   12.0034 C   0  0  0  0  0  0  0  0  0  0  0  0
   -0.0097    7.5277   13.1277 C   0  0  0  0  0  0  0  0  0  0  0  0
   -0.0965    8.4737   14.3243 C   0  0  0  0  0  0  0  0  0  0  0  0
    0.6494    7.8401   15.4975 C   0  0  0  0  0  0  0  0  0  0  0  0
    0.4868    8.7957   16.6785 C   0  0  0  0  0  0  0  0  0  0  0  0
    1.2637    8.2319   17.8672 C   0  0  0  0  0  0  0  0  0  0  0  0
    1.1147    9.2468   18.9995 C   0  0  0  0  0  0  0  0  0  0  0  0
    1.9222    8.7538   20.1992 C   0  0  0  0  0  0  0  0  0  0  0  0
  2  1  2  0
  3  2  1  0
  4  1  1  0
  5  4  2  0
  5  3  1  0
  6  5  1  0
  7  6  1  0
  8  7  1  0
  9  8  2  0
 10  8  1  0
 11 10  1  0
 12 11  1  0
 13 12  1  0
 14 13  1  0
 15 14  1  0
 16 15  2  0
 17 15  1  0
 18 16  1  0
 19 17  2  0
 20 19  1  0
 20 18  2  0
 21 18  1  0
 22 21  1  0
 23 22  1  0
 24 23  1  0
 25 24  1  0
 26 25  1  0
 27 26  1  0
 28 27  1  0
 29 28  1  0
 30 29  1  0
 31 30  1  0
 32 31  1  0
M  END
>  <SMILES>  (7) 
CCCCCCCCCCCOc1cccc(CCCCOC(=S)NCc2ccco2)c1

>  <scaffold>  (7) 
furan

$$$$

     RDKit          3D

 23 24  0  0  0  0  0  0  0  0999 V2000
   -0.0000    0.0000   -0.0000 C   0  0  0  0  0  0  0  0  0  0  0  0
   -0.0000    0.0000    1.3625 C   0  0  0  0  0  0  0  0  0  0  0  0
    1.2637   -0.0000    1.8290 O   0  0  0  0  0  0  0  0  0  0  0  0
    1.3566    0.0000   -0.4137 C   0  0  0  0  0  0  0  0  0  0  0  0
    2.0888   -0.0524    0.7342 C   0  0  0  0  0  0  0  0  0  0  0  0
   -1.1524   -0.0000    2.2852 C   0  0  0  0  0  0  0  0  0  0  0  0
    3.5618   -0.0149    0.8261 C   0  0  0  0  0  0  0  0  0  0  0  0
    4.2943    0.2355   -0.1105 O   0  0  0  0  0  0  0  0  0  0  0  0
    4.0158   -0.2399    2.0909 N   0  0  0  0  0  0  0  0  0  0  0  0
    5.3385   -0.1913    2.3801 N   0  0  0  0  0  0  0  0  0  0  0  0
    5.7224   -0.4524    3.5644 C   0  0  0  0  0  0  0  0  0  0  0  0
    7.0828   -0.3657    3.9255 C   0  0  0  0  0  0  0  0  0  0  0  0
    7.6292   -0.6750    5.1613 C   0  0  0  0  0  0  0  0  0  0  0  0
    8.1831    0.0073    3.0699 C   0  0  0  0  0  0  0  0  0  0  0  0
    8.9428   -0.5184    5.1036 O   0  0  0  0  0  0  0  0  0  0  0  0
    9.2764   -0.1178    3.8865 C   0  0  0  0  0  0  0  0  0  0  0  0
    8.0999    0.3419    1.7597 O   0  0  0  0  0  0  0  0  0  0  0  0
   10.6974    0.1763    3.6151 C   0  0  0  0  0  0  0  0  0  0  0  0
   11.0959    0.5961    2.5546 O   0  0  0  0  0  0  0  0  0  0  0  0
   11.4867   -0.1247    4.6545 O   0  0  0  0  0  0  0  0  0  0  0  0
   12.8796    0.1384    4.6082 C   0  0  0  0  0  0  0  0  0  0  0  0
   13.2903    1.2850    5.5307 C   0  0  0  0  0  0  0  0  0  0  0  0
   12.6388    2.6003    5.1066 C   0  0  0  0  0  0  0  0  0  0  0  0
  2  1  2  0
  3  2  1  0
  4  1  1  0
  5  4  2  0
  5  3  1  0
  6  2  1  0
  7  5  1  0
  8  7  2  0
  9  7  1  0
 10  9  1  0
 11 10  2  0
 12 11  1  0
 13 12  2  0
 14 12  1  0
 15 13  1  0
 16 15  1  0
 16 14  2  0
 17 14  1  0
 18 16  1  0
 19 18  2  0
 20 18  1  0
 21 20  1  0
 22 21  1  0
 23 22  1  0
M  END
>  <SMILES>  (8) 
CCCOC(=O)c1occ(C=NNC(=O)c2ccc(C)o2)c1O

>  <scaffold>  (8) 
furan

$$$$

     RDKit          3D

 17 19  0  0  0  0  0  0  0  0999 V2000
    0.0000   -0.0000    0.0000 C   0  0  0  0  0  0  0  0  0  0  0  0
   -0.0000   -0.0000    1.3625 C   0  0  0  0  0  0  0  0  0  0  0  0
    1.2637    0.0000    1.8290 O   0  0  0  0  0  0  0  0  0  0  0  0
    1.3566   -0.0000   -0.4137 C   0  0  0  0  0  0  0  0  0  0  0  0
    2.0888   -0.0524    0.7342 C   0  0  0  0  0  0  0  0  0  0  0  0
    3.5442   -0.0211    0.9795 C   0  0  0  0  0  0  0  0  0  0  0  0
    4.5393   -1.0486   -0.1533 S   0  0  0  0  0  0  0  0  0  0  0  0
    3.7968   -2.5932    0.1035 C   0  0  0  0  0  0  0  0  0  0  0  0
    2.8362   -2.8237    0.9510 N   0  0  0  0  0  0  0  0  0  0  0  0
    4.1587   -3.7355   -0.5774 N   0  0  0  0  0  0  0  0  0  0  0  0
    2.4891   -4.1351    0.8233 N   0  0  0  0  0  0  0  0  0  0  0  0
    3.2755   -4.6857   -0.0890 C   0  0  0  0  0  0  0  0  0  0  0  0
    5.0848   -4.0215   -1.5462 C   0  0  0  0  0  0  0  0  0  0  0  0
    3.3439   -5.9544   -0.6231 N   0  0  0  0  0  0  0  0  0  0  0  0
    5.1600   -5.2798   -2.0633 C   0  0  0  0  0  0  0  0  0  0  0  0
    4.2326   -6.3596   -1.6179 C   0  0  0  0  0  0  0  0  0  0  0  0
    4.2310   -7.4846   -2.0953 O   0  0  0  0  0  0  0  0  0  0  0  0
  2  1  2  0
  3  2  1  0
  4  1  1  0
  5  4  2  0
  5  3  1  0
  6  5  1  0
  7  6  1  0
  8  7  1  0
  9  8  2  0
 10  8  1  0
 11  9  1  0
 12 11  2  0
 12 10  1  0
 13 10  1  0
 14 12  1  0
 15 13  2  0
 16 14  1  0
 16 15  1  0
 17 16  2  0
M  END
>  <SMILES>  (9) 
O=c1ccn2c(SCc3ccco3)nnc2[nH]1

>  <scaffold>  (9) 
furan

$$$$

     RDKit          3D

 16 17  0  0  0  0  0  0  0  0999 V2000
   -0.0000   -0.0000   -0.0000 C   0  0  0  0  0  0  0  0  0  0  0  0
   -0.0000    0.0000    1.3625 C   0  0  0  0  0  0  0  0  0  0  0  0
    1.3599    0.0000    1.7652 C   0  0  0  0  0  0  0  0  0  0  0  0
    1.2559    0.0000   -0.5080 O   0  0  0  0  0  0  0  0  0  0  0  0
    2.0926   -0.0506    0.5366 C   0  0  0  0  0  0  0  0  0  0  0  0
   -1.1724    0.0000   -0.9387 C   0  0  0  0  0  0  0  0  0  0  0  0
   -2.2588   -0.8057   -0.4605 N   0  0  0  0  0  0  0  0  0  0  0  0
   -2.1573   -2.1187   -0.3224 N   0  0  0  0  0  0  0  0  0  0  0  0
   -3.4127   -0.2807   -0.0784 N   0  0  0  0  0  0  0  0  0  0  0  0
   -3.3354   -2.4283    0.1771 C   0  0  0  0  0  0  0  0  0  0  0  0
   -4.0946   -1.2602    0.3181 N   0  0  0  0  0  0  0  0  0  0  0  0
   -3.8331   -4.0272    0.6604 S   0  0  0  0  0  0  0  0  0  0  0  0
   -5.4721   -3.9989   -0.1645 C   0  0  0  0  0  0  0  0  0  0  0  0
   -5.4756   -3.3790   -1.5610 C   0  0  0  0  0  0  0  0  0  0  0  0
   -6.2909   -2.5606   -1.9148 O   0  0  0  0  0  0  0  0  0  0  0  0
   -4.4691   -3.8407   -2.3280 N   0  0  0  0  0  0  0  0  0  0  0  0
  2  1  2  0
  3  2  1  0
  4  1  1  0
  5  4  1  0
  5  3  2  0
  6  1  1  0
  7  6  1  0
  8  7  1  0
  9  7  1  0
 10  8  2  0
 11 10  1  0
 11  9  2  0
 12 10  1  0
 13 12  1  0
 14 13  1  0
 15 14  2  0
 16 14  1  0
M  END
>  <SMILES>  (10) 
NC(=O)CSc1nnn(Cc2ccco2)n1

>  <scaffold>  (10) 
furan

$$$$

     RDKit          3D

 23 25  0  0  0  0  0  0  0  0999 V2000
   -0.0000   -0.0000    0.0000 C   0  0  0  0  0  0  0  0  0  0  0  0
    0.0000   -0.0000    1.3625 C   0  0  0  0  0  0  0  0  0  0  0  0
    1.2558   -0.0000    1.8498 O   0  0  0  0  0  0  0  0  0  0  0  0
    1.3566   -0.0000   -0.4137 C   0  0  0  0  0  0  0  0  0  0  0  0
    2.0888    0.0524    0.7342 C   0  0  0  0  0  0  0  0  0  0  0  0
    3.5513    0.1365    0.9765 C   0  0  0  0  0  0  0  0  0  0  0  0
    4.2146   -1.1432    1.0400 N   0  0  0  0  0  0  0  0  0  0  0  0
    4.9343   -1.6696    0.0097 C   0  0  0  0  0  0  0  0  0  0  0  0
    4.1535   -2.0435    2.0713 C   0  0  0  0  0  0  0  0  0  0  0  0
    5.3612   -2.8430    0.3497 N   0  0  0  0  0  0  0  0  0  0  0  0
    4.9113   -3.1594    1.6605 C   0  0  0  0  0  0  0  0  0  0  0  0
    3.5599   -2.0286    3.3239 C   0  0  0  0  0  0  0  0  0  0  0  0
    5.0958   -4.2441    2.5167 C   0  0  0  0  0  0  0  0  0  0  0  0
    3.7743   -3.1369    4.1146 C   0  0  0  0  0  0  0  0  0  0  0  0
    4.5054   -4.1591    3.7592 C   0  0  0  0  0  0  0  0  0  0  0  0
    4.6184   -5.0913    4.7465 O   0  0  0  0  0  0  0  0  0  0  0  0
    5.3957   -6.2275    4.4808 C   0  0  0  0  0  0  0  0  0  0  0  0
    4.7846   -7.1914    3.4650 C   0  0  0  0  0  0  0  0  0  0  0  0
    5.4334   -7.9500    2.7967 O   0  0  0  0  0  0  0  0  0  0  0  0
    3.4773   -7.1345    3.4270 O   0  0  0  0  0  0  0  0  0  0  0  0
    2.7840   -8.0268    2.5565 C   0  0  0  0  0  0  0  0  0  0  0  0
    2.7059   -9.4418    3.1276 C   0  0  0  0  0  0  0  0  0  0  0  0
    1.8243   -9.4651    4.3752 C   0  0  0  0  0  0  0  0  0  0  0  0
  2  1  2  0
  3  2  1  0
  4  1  1  0
  5  4  2  0
  5  3  1  0
  6  5  1  0
  7  6  1  0
  8  7  1  0
  9  7  1  0
 10  8  2  0
 11  9  2  0
 11 10  1  0
 12  9  1  0
 13 11  1  0
 14 12  2  0
 15 14  1  0
 15 13  2  0
 16 15  1  0
 17 16  1  0
 18 17  1  0
 19 18  2  0
 20 18  1  0
 21 20  1  0
 22 21  1  0
 23 22  1  0
M  END
>  <SMILES>  (11) 
CCCOC(=O)COc1ccc2c(c1)ncn2Cc1ccco1

>  <scaffold>  (11) 
furan

$$$$

     RDKit          3D

 28 30  0  0  0  0  0  0  0  0999 V2000
    0.0000    0.0000   -0.0000 C   0  0  0  0  0  0  0  0  0  0  0  0
   -0.0000    0.0000    1.3782 C   0  0  0  0  0  0  0  0  0  0  0  0
    1.3522    0.0000    1.7786 C   0  0  0  0  0  0  0  0  0  0  0  0
    1.3108    0.0000   -0.3997 O   0  0  0  0  0  0  0  0  0  0  0  0
    2.1571    0.0512    0.6570 C   0  0  0  0  0  0  0  0  0  0  0  0
   -1.1393   -0.0000   -0.9122 C   0  0  0  0  0  0  0  0  0  0  0  0
   -2.3217    0.0000   -0.5516 O   0  0  0  0  0  0  0  0  0  0  0  0
   -0.7329   -0.0535   -2.2034 N   0  0  0  0  0  0  0  0  0  0  0  0
   -1.7264   -0.0050   -3.1689 N   0  0  0  0  0  0  0  0  0  0  0  0
    3.5040    0.1158    0.5258 O   0  0  0  0  0  0  0  0  0  0  0  0
   -1.3698   -0.0068   -4.4519 C   0  0  0  0  0  0  0  0  0  0  0  0
   -0.2590   -0.0460   -4.9428 O   0  0  0  0  0  0  0  0  0  0  0  0
   -2.6225    0.1096   -5.2563 C   0  0  0  0  0  0  0  0  0  0  0  0
   -3.8191    0.0943   -4.7445 N   0  0  0  0  0  0  0  0  0  0  0  0
   -2.3821    0.2728   -6.6445 C   0  0  0  0  0  0  0  0  0  0  0  0
   -4.9337    0.2392   -5.4009 N   0  0  0  0  0  0  0  0  0  0  0  0
   -3.5363    0.4215   -7.3229 C   0  0  0  0  0  0  0  0  0  0  0  0
   -4.8909    0.4939   -6.7790 C   0  0  0  0  0  0  0  0  0  0  0  0
   -5.9641    0.6677   -7.3525 O   0  0  0  0  0  0  0  0  0  0  0  0
   -6.1832    0.2579   -4.7131 C   0  0  0  0  0  0  0  0  0  0  0  0
   -6.0266    0.6700   -3.3905 C   0  0  0  0  0  0  0  0  0  0  0  0
   -7.4463   -0.1007   -5.1814 C   0  0  0  0  0  0  0  0  0  0  0  0
   -7.2092    0.6563   -2.6675 C   0  0  0  0  0  0  0  0  0  0  0  0
   -8.6083   -0.1123   -4.4699 C   0  0  0  0  0  0  0  0  0  0  0  0
   -8.4275    0.2372   -3.1108 C   0  0  0  0  0  0  0  0  0  0  0  0
   -9.7001    0.1533   -2.3672 C   0  0  0  0  0  0  0  0  0  0  0  0
   -9.7525    1.2234   -1.2778 C   0  0  0  0  0  0  0  0  0  0  0  0
  -11.1702    1.1159   -0.7184 C   0  0  0  0  0  0  0  0  0  0  0  0
  2  1  2  0
  3  2  1  0
  4  1  1  0
  5  4  1  0
  5  3  2  0
  6  1  1  0
  7  6  2  0
  8  6  1  0
  9  8  1  0
 10  5  1  0
 11  9  1  0
 12 11  2  0
 13 11  1  0
 14 13  2  0
 15 13  1  0
 16 14  1  0
 17 15  2  0
 18 17  1  0
 18 16  1  0
 19 18  2  0
 20 16  1  0
 21 20  2  0
 22 20  1  0
 23 21  1  0
 24 22  2  0
 25 24  1  0
 25 23  2  0
 26 25  1  0
 27 26  1  0
 28 27  1  0
M  END
>  <SMILES>  (12) 
CCCc1ccc(-n2nc(C(=O)NNC(=O)c3ccc(O)o3)ccc2=O)cc1

>  <scaffold>  (12) 
furan

$$$$

     RDKit          3D

 25 27  0  0  0  0  0  0  0  0999 V2000
   -0.0000   -0.0000   -0.0000 C   0  0  0  0  0  0  0  0  0  0  0  0
   -0.0000    0.0000    1.3782 C   0  0  0  0  0  0  0  0  0  0  0  0
    1.3522   -0.0000    1.7786 C   0  0  0  0  0  0  0  0  0  0  0  0
    1.3033    0.0000   -0.3974 O   0  0  0  0  0  0  0  0  0  0  0  0
    2.1496    0.0512    0.6592 C   0  0  0  0  0  0  0  0  0  0  0  0
   -1.1135    0.0000   -0.8915 C   0  0  0  0  0  0  0  0  0  0  0  0
   -2.3372   -0.0000   -0.5184 N   0  0  0  0  0  0  0  0  0  0  0  0
    3.4736    0.1147    0.5303 O   0  0  0  0  0  0  0  0  0  0  0  0
   -3.3454   -0.0480   -1.3871 N   0  0  0  0  0  0  0  0  0  0  0  0
   -4.6695   -0.0008   -1.0372 C   0  0  0  0  0  0  0  0  0  0  0  0
   -5.5385   -0.1137   -2.0399 N   0  0  0  0  0  0  0  0  0  0  0  0
   -5.0555    0.1662    0.2920 C   0  0  0  0  0  0  0  0  0  0  0  0
   -6.8356   -0.0313   -1.8305 C   0  0  0  0  0  0  0  0  0  0  0  0
   -6.4136    0.2514    0.5110 C   0  0  0  0  0  0  0  0  0  0  0  0
   -7.3534    0.1760   -0.5615 C   0  0  0  0  0  0  0  0  0  0  0  0
   -8.8423    0.2090   -0.3679 C   0  0  0  0  0  0  0  0  0  0  0  0
   -9.3139   -1.0928    0.2782 C   0  0  0  0  0  0  0  0  0  0  0  0
   -9.7290   -1.1616    1.4182 O   0  0  0  0  0  0  0  0  0  0  0  0
   -9.1621   -2.1421   -0.5651 N   0  0  0  0  0  0  0  0  0  0  0  0
   -9.4226   -3.4996   -0.3301 C   0  0  0  0  0  0  0  0  0  0  0  0
  -10.0222   -3.9887    0.8200 C   0  0  0  0  0  0  0  0  0  0  0  0
   -9.0450   -4.4304   -1.2968 C   0  0  0  0  0  0  0  0  0  0  0  0
  -10.2146   -5.3454    1.0290 C   0  0  0  0  0  0  0  0  0  0  0  0
   -9.2338   -5.7639   -1.0904 C   0  0  0  0  0  0  0  0  0  0  0  0
   -9.8058   -6.2770    0.0757 C   0  0  0  0  0  0  0  0  0  0  0  0
  2  1  2  0
  3  2  1  0
  4  1  1  0
  5  4  1  0
  5  3  2  0
  6  1  1  0
  7  6  2  0
  8  5  1  0
  9  7  1  0
 10  9  1  0
 11 10  2  0
 12 10  1  0
 13 11  1  0
 14 12  2  0
 15 14  1  0
 15 13  2  0
 16 15  1  0
 17 16  1  0
 18 17  2  0
 19 17  1  0
 20 19  1  0
 21 20  2  0
 22 20  1  0
 23 21  1  0
 24 22  2  0
 25 24  1  0
 25 23  2  0
M  END
>  <SMILES>  (13) 
O=C(Cc1ccc(NN=Cc2ccc(O)o2)nc1)Nc1ccccc1

>  <scaffold>  (13) 
furan

$$$$

     RDKit          3D

 35 37  0  0  0  0  0  0  0  0999 V2000
   -0.0000   -0.0000   -0.0000 C   0  0  0  0  0  0  0  0  0  0  0  0
    0.0000   -0.0000    1.3625 C   0  0  0  0  0  0  0  0  0  0  0  0
    1.3599    0.0000    1.7652 C   0  0  0  0  0  0  0  0  0  0  0  0
    1.2757    0.0627   -0.4516 O   0  0  0  0  0  0  0  0  0  0  0  0
    2.1187    0.0531    0.5990 C   0  0  0  0  0  0  0  0  0  0  0  0
   -1.1590   -0.0000   -0.9280 C   0  0  0  0  0  0  0  0  0  0  0  0
    3.9778    0.0551    0.3357 Br  0  0  0  0  0  0  0  0  0  0  0  0
   -1.4215    1.3194   -1.4721 N   0  0  0  0  0  0  0  0  0  0  0  0
   -1.6595    2.4341   -0.6010 C   0  0  0  0  0  0  0  0  0  0  0  0
   -1.3575    1.4840   -2.8311 C   0  0  0  0  0  0  0  0  0  0  0  0
   -1.0963    0.6033   -3.6158 O   0  0  0  0  0  0  0  0  0  0  0  0
   -1.5788    2.7910   -3.1465 N   0  0  0  0  0  0  0  0  0  0  0  0
   -1.6353    3.2774   -4.4348 C   0  0  0  0  0  0  0  0  0  0  0  0
   -1.9292    4.6512   -4.5563 C   0  0  0  0  0  0  0  0  0  0  0  0
   -1.3615    2.6158   -5.6217 C   0  0  0  0  0  0  0  0  0  0  0  0
   -1.9478    5.2023   -5.8455 C   0  0  0  0  0  0  0  0  0  0  0  0
   -1.3846    3.1631   -6.8950 C   0  0  0  0  0  0  0  0  0  0  0  0
   -1.7487    4.4376   -6.9747 C   0  0  0  0  0  0  0  0  0  0  0  0
   -2.1486    5.4619   -3.4235 N   0  0  0  0  0  0  0  0  0  0  0  0
   -0.9740    5.7830   -2.6343 C   0  0  0  0  0  0  0  0  0  0  0  0
   -3.0430    6.5808   -3.5023 C   0  0  0  0  0  0  0  0  0  0  0  0
   -3.5936    6.9412   -2.1235 C   0  0  0  0  0  0  0  0  0  0  0  0
   -4.5791    8.0995   -2.2697 C   0  0  0  0  0  0  0  0  0  0  0  0
   -5.1975    8.4612   -0.9301 C   0  0  0  0  0  0  0  0  0  0  0  0
   -6.1305    9.6559   -1.1210 C   0  0  0  0  0  0  0  0  0  0  0  0
   -6.7307   10.0895    0.1955 C   0  0  0  0  0  0  0  0  0  0  0  0
   -6.5698   11.4006    0.6411 C   0  0  0  0  0  0  0  0  0  0  0  0
   -7.5241    9.2169    0.9238 C   0  0  0  0  0  0  0  0  0  0  0  0
   -7.1405   11.8547    1.8107 C   0  0  0  0  0  0  0  0  0  0  0  0
   -8.0899    9.6734    2.0947 C   0  0  0  0  0  0  0  0  0  0  0  0
   -7.9108   11.0016    2.5996 C   0  0  0  0  0  0  0  0  0  0  0  0
   -8.4645   11.5786    3.7028 O   0  0  0  0  0  0  0  0  0  0  0  0
   -9.2068   10.7478    4.5540 C   0  0  0  0  0  0  0  0  0  0  0  0
   -8.3767    9.7361    5.3426 C   0  0  0  0  0  0  0  0  0  0  0  0
   -9.2416    8.8152    6.2172 C   0  0  0  0  0  0  0  0  0  0  0  0
  2  1  2  0
  3  2  1  0
  4  1  1  0
  5  4  1  0
  5  3  2  0
  6  1  1  0
  7  5  1  0
  8  6  1  0
  9  8  1  0
 10  8  1  0
 11 10  2  0
 12 10  1  0
 13 12  1  0
 14 13  2  0
 15 13  1  0
 16 14  1  0
 17 15  2  0
 18 17  1  0
 18 16  1  0
 19 14  1  0
 20 19  1  0
 21 19  1  0
 22 21  1  0
 23 22  1  0
 24 23  1  0
 25 24  1  0
 26 25  1  0
 27 26  2  0
 28 26  1  0
 29 27  1  0
 30 28  2  0
 31 30  1  0
 31 29  2  0
 32 31  1  0
 33 32  1  0
 34 33  1  0
 35 34  1  0
M  END
>  <SMILES>  (14) 
CCCOc1ccc(CCCCCN(C)C2=C(NC(=O)N(C)Cc3ccc(Br)o3)C=CCC2)cc1

>  <scaffold>  (14) 
furan

$$$$

     RDKit          3D

 26 28  0  0  0  0  0  0  0  0999 V2000
    0.0000    0.0000    0.0000 C   0  0  0  0  0  0  0  0  0  0  0  0
    0.0000   -0.0000    1.3704 C   0  0  0  0  0  0  0  0  0  0  0  0
    1.3522   -0.0000    1.7707 C   0  0  0  0  0  0  0  0  0  0  0  0
    1.2559    0.0000   -0.5080 O   0  0  0  0  0  0  0  0  0  0  0  0
    2.0926    0.0506    0.5366 C   0  0  0  0  0  0  0  0  0  0  0  0
   -1.1657   -0.0000   -0.9333 C   0  0  0  0  0  0  0  0  0  0  0  0
   -1.2260   -1.2268   -1.6424 O   0  0  0  0  0  0  0  0  0  0  0  0
   -0.5217   -1.3513   -2.7930 C   0  0  0  0  0  0  0  0  0  0  0  0
    0.0279   -0.3819   -3.2947 O   0  0  0  0  0  0  0  0  0  0  0  0
   -0.4906   -2.7161   -3.2603 C   0  0  0  0  0  0  0  0  0  0  0  0
    0.1975   -3.1141   -4.3669 N   0  0  0  0  0  0  0  0  0  0  0  0
   -1.1010   -3.7980   -2.6277 C   0  0  0  0  0  0  0  0  0  0  0  0
    0.0719   -4.4254   -4.5009 C   0  0  0  0  0  0  0  0  0  0  0  0
   -0.6549   -4.8584   -3.3579 N   0  0  0  0  0  0  0  0  0  0  0  0
    0.5317   -5.2228   -5.4633 N   0  0  0  0  0  0  0  0  0  0  0  0
   -1.0301   -6.2382   -3.1652 C   0  0  0  0  0  0  0  0  0  0  0  0
   -2.3036   -6.5798   -3.9197 C   0  0  0  0  0  0  0  0  0  0  0  0
   -3.4963   -6.8956   -3.2537 C   0  0  0  0  0  0  0  0  0  0  0  0
   -2.2480   -6.6071   -5.3045 C   0  0  0  0  0  0  0  0  0  0  0  0
   -4.6391   -7.1509   -3.9806 C   0  0  0  0  0  0  0  0  0  0  0  0
   -3.3962   -6.8651   -6.0369 C   0  0  0  0  0  0  0  0  0  0  0  0
   -4.6764   -7.1115   -5.3817 C   0  0  0  0  0  0  0  0  0  0  0  0
   -5.8458   -7.4320   -5.9860 O   0  0  0  0  0  0  0  0  0  0  0  0
   -5.9179   -7.4555   -7.3941 C   0  0  0  0  0  0  0  0  0  0  0  0
   -7.3244   -7.9028   -7.7889 C   0  0  0  0  0  0  0  0  0  0  0  0
   -7.5237   -7.9132   -9.0826 F   0  0  0  0  0  0  0  0  0  0  0  0
  2  1  1  0
  3  2  1  0
  4  1  1  0
  5  4  1  0
  5  3  2  0
  6  1  2  0
  7  6  1  0
  8  7  1  0
  9  8  2  0
 10  8  1  0
 11 10  2  0
 12 10  1  0
 13 11  1  0
 14 13  1  0
 14 12  2  0
 15 13  2  0
 16 14  1  0
 17 16  1  0
 18 17  2  0
 19 17  1  0
 20 18  1  0
 21 19  2  0
 22 21  1  0
 22 20  2  0
 23 22  1  0
 24 23  1  0
 25 24  1  0
 26 25  1  0
M  CHG  4   2  -1  14   1  15   1  25  -1
M  END
>  <SMILES>  (15) 
[NH2+]=C1N=C(C(=O)OC=C2[CH-]C=CO2)C=[N+]1Cc1ccc(OC[CH-]F)cc1

>  <scaffold>  (15) 
furan

$$$$

     RDKit          3D

 14 15  0  0  0  0  0  0  0  0999 V2000
   -0.0000    0.0000   -0.0000 C   0  0  0  0  0  0  0  0  0  0  0  0
    0.0000   -0.0000    1.3625 C   0  0  0  0  0  0  0  0  0  0  0  0
    1.2565   -0.0000    1.8264 O   0  0  0  0  0  0  0  0  0  0  0  0
    1.3566    0.0000   -0.4137 C   0  0  0  0  0  0  0  0  0  0  0  0
    2.0888    0.0524    0.7342 C   0  0  0  0  0  0  0  0  0  0  0  0
    3.5804    0.0174    0.9058 C   0  0  0  0  0  0  0  0  0  0  0  0
    4.0198    0.0359    2.2627 N   0  0  0  0  0  0  0  0  0  0  0  0
    4.1330   -1.0654    2.9752 N   0  0  0  0  0  0  0  0  0  0  0  0
    4.1898    1.1537    2.9224 N   0  0  0  0  0  0  0  0  0  0  0  0
    4.5056   -0.5868    4.1436 C   0  0  0  0  0  0  0  0  0  0  0  0
    4.5287    0.7884    4.0849 N   0  0  0  0  0  0  0  0  0  0  0  0
    4.8366   -1.4050    5.3270 C   0  0  0  0  0  0  0  0  0  0  0  0
    4.7553   -2.6086    5.3923 O   0  0  0  0  0  0  0  0  0  0  0  0
    5.2265   -0.6285    6.3362 O   0  0  0  0  0  0  0  0  0  0  0  0
  2  1  2  0
  3  2  1  0
  4  1  1  0
  5  4  2  0
  5  3  1  0
  6  5  1  0
  7  6  1  0
  8  7  1  0
  9  7  1  0
 10  8  2  0
 11 10  1  0
 11  9  2  0
 12 10  1  0
 13 12  2  0
 14 12  1  0
M  END
>  <SMILES>  (16) 
O=C(O)c1nnn(Cc2ccco2)n1

>  <scaffold>  (16) 
furan

$$$$

     RDKit          3D

 32 33  0  0  0  0  0  0  0  0999 V2000
    0.0000   -0.0000   -0.0000 C   0  0  0  0  0  0  0  0  0  0  0  0
    0.0000   -0.0000    1.3625 C   0  0  0  0  0  0  0  0  0  0  0  0
    1.2405   -0.0000    1.8674 O   0  0  0  0  0  0  0  0  0  0  0  0
    1.3489   -0.0000   -0.4113 C   0  0  0  0  0  0  0  0  0  0  0  0
    2.0853   -0.0527    0.7432 C   0  0  0  0  0  0  0  0  0  0  0  0
   -1.1524    0.0000    2.2852 C   0  0  0  0  0  0  0  0  0  0  0  0
   -2.2901   -0.0559    1.8825 O   0  0  0  0  0  0  0  0  0  0  0  0
   -0.7506    0.0529    3.5618 O   0  0  0  0  0  0  0  0  0  0  0  0
    3.4274   -0.1299    0.9656 N   0  0  0  0  0  0  0  0  0  0  0  0
   -1.7759    0.1142    4.5516 C   0  0  0  0  0  0  0  0  0  0  0  0
   -2.4945    1.4622    4.5215 C   0  0  0  0  0  0  0  0  0  0  0  0
    4.3928    0.1664   -0.0650 C   0  0  0  0  0  0  0  0  0  0  0  0
    4.4633    1.6187   -0.3651 C   0  0  0  0  0  0  0  0  0  0  0  0
    4.2693    2.1444   -1.5152 N   0  0  0  0  0  0  0  0  0  0  0  0
    4.8084    2.7683    0.8987 S   0  0  0  0  0  0  0  0  0  0  0  0
    4.4428    3.4801   -1.5359 C   0  0  0  0  0  0  0  0  0  0  0  0
    4.7546    4.0220   -0.3109 C   0  0  0  0  0  0  0  0  0  0  0  0
    5.0298    5.4609   -0.0216 C   0  0  0  0  0  0  0  0  0  0  0  0
    4.6530    6.3784   -1.1837 C   0  0  0  0  0  0  0  0  0  0  0  0
    5.0039    7.8295   -0.8589 C   0  0  0  0  0  0  0  0  0  0  0  0
    4.6945    8.7876   -2.0198 C   0  0  0  0  0  0  0  0  0  0  0  0
    3.1946    8.9950   -2.2243 C   0  0  0  0  0  0  0  0  0  0  0  0
    2.9425    9.9952   -3.3514 C   0  0  0  0  0  0  0  0  0  0  0  0
    1.4643   10.2777   -3.5586 C   0  0  0  0  0  0  0  0  0  0  0  0
    1.2639   11.2390   -4.7291 C   0  0  0  0  0  0  0  0  0  0  0  0
   -0.2298   11.5324   -4.8604 C   0  0  0  0  0  0  0  0  0  0  0  0
   -0.4803   12.5406   -5.9926 C   0  0  2  0  0  0  0  0  0  0  0  0
   -1.9475   12.9624   -5.9301 C   0  0  0  0  0  0  0  0  0  0  0  0
   -0.0778   11.9892   -7.3594 C   0  0  0  0  0  0  0  0  0  0  0  0
   -2.2356   14.0093   -7.0050 C   0  0  0  0  0  0  0  0  0  0  0  0
   -3.7221   14.3557   -6.9361 C   0  0  0  0  0  0  0  0  0  0  0  0
   -4.0518   15.4423   -7.9584 C   0  0  0  0  0  0  0  0  0  0  0  0
  2  1  2  0
  3  2  1  0
  4  1  1  0
  5  4  2  0
  5  3  1  0
  6  2  1  0
  7  6  2  0
  8  6  1  0
  9  5  1  0
 10  8  1  0
 11 10  1  0
 12  9  1  0
 13 12  1  0
 14 13  2  0
 15 13  1  0
 16 14  1  0
 17 16  2  0
 17 15  1  0
 18 17  1  0
 19 18  1  0
 20 19  1  0
 21 20  1  0
 22 21  1  0
 23 22  1  0
 24 23  1  0
 25 24  1  0
 26 25  1  0
 27 26  1  0
 28 27  1  0
 27 29  1  6
 30 28  1  0
 31 30  1  0
 32 31  1  0
M  END
>  <SMILES>  (17) 
CCCCC(C)CCCCCCCCCc1cnc(CNc2ccc(C(=O)OCC)o2)s1

>  <scaffold>  (17) 
furan

$$$$

     RDKit          3D

 27 29  0  0  0  0  0  0  0  0999 V2000
   -0.0000    0.0000   -0.0000 O   0  0  0  0  0  0  0  0  0  0  0  0
   -0.0000   -0.0000    1.3625 C   0  0  0  0  0  0  0  0  0  0  0  0
    1.2932    0.0000    1.8159 C   0  0  0  0  0  0  0  0  0  0  0  0
    1.2811   -0.0000   -0.3906 C   0  0  0  0  0  0  0  0  0  0  0  0
    2.1470   -0.0524    0.6905 C   0  0  0  0  0  0  0  0  0  0  0  0
   -1.2161   -0.0597    1.9206 O   0  0  0  0  0  0  0  0  0  0  0  0
    1.6217    0.0539   -1.7088 N   0  0  0  0  0  0  0  0  0  0  0  0
    3.5234   -0.1236    0.7004 C   0  0  0  0  0  0  0  0  0  0  0  0
    4.6698   -0.1820    0.5808 N   0  0  0  0  0  0  0  0  0  0  0  0
   -1.3964    0.3216    3.2494 C   0  0  0  0  0  0  0  0  0  0  0  0
   -0.8938    1.5004    3.7778 C   0  0  0  0  0  0  0  0  0  0  0  0
   -2.2385   -0.4539    3.9883 C   0  0  0  0  0  0  0  0  0  0  0  0
   -1.1411    1.8608    5.0932 C   0  0  0  0  0  0  0  0  0  0  0  0
   -2.4831   -0.0911    5.2787 C   0  0  0  0  0  0  0  0  0  0  0  0
   -1.9547    1.0465    5.8655 C   0  0  0  0  0  0  0  0  0  0  0  0
   -2.2272    1.2669    7.1822 O   0  0  0  0  0  0  0  0  0  0  0  0
   -1.6328    2.3371    7.8822 C   0  0  0  0  0  0  0  0  0  0  0  0
   -0.1771    2.0345    8.2342 C   0  0  0  0  0  0  0  0  0  0  0  0
    0.4896    3.1294    9.0331 C   0  0  0  0  0  0  0  0  0  0  0  0
    1.0464    2.8824   10.2782 C   0  0  0  0  0  0  0  0  0  0  0  0
    0.5831    4.4075    8.4841 C   0  0  0  0  0  0  0  0  0  0  0  0
    1.6139    3.8472   11.0550 C   0  0  0  0  0  0  0  0  0  0  0  0
    1.2353    5.3504    9.2204 C   0  0  0  0  0  0  0  0  0  0  0  0
    1.6465    5.1762   10.5846 C   0  0  0  0  0  0  0  0  0  0  0  0
    2.1566    6.1763   11.3429 N   0  0  0  0  0  0  0  0  0  0  0  0
    2.5929    6.0770   12.7146 C   0  0  0  0  0  0  0  0  0  0  0  0
    1.4466    5.9853   13.7206 C   0  0  0  0  0  0  0  0  0  0  0  0
  2  1  1  0
  3  2  2  0
  4  1  1  0
  5  4  2  0
  5  3  1  0
  6  2  1  0
  7  4  1  0
  8  5  1  0
  9  8  3  0
 10  6  1  0
 11 10  2  0
 12 10  1  0
 13 11  1  0
 14 12  2  0
 15 14  1  0
 15 13  2  0
 16 15  1  0
 17 16  1  0
 18 17  1  0
 19 18  1  0
 20 19  2  0
 21 19  1  0
 22 20  1  0
 23 21  2  0
 24 23  1  0
 24 22  2  0
 25 24  1  0
 26 25  1  0
 27 26  1  0
M  END
>  <SMILES>  (18) 
CCNc1ccc(CCOc2ccc(Oc3cc(C#N)c(N)o3)cc2)cc1

>  <scaffold>  (18) 
furan

$$$$

     RDKit          3D

 28 30  0  0  0  0  0  0  0  0999 V2000
   -0.0000    0.0000   -0.0000 C   0  0  0  0  0  0  0  0  0  0  0  0
    0.0000   -0.0000    1.3625 C   0  0  0  0  0  0  0  0  0  0  0  0
    1.2637   -0.0000    1.8290 O   0  0  0  0  0  0  0  0  0  0  0  0
    1.3489   -0.0000   -0.4113 C   0  0  0  0  0  0  0  0  0  0  0  0
    2.1460   -0.0522    0.7021 C   0  0  0  0  0  0  0  0  0  0  0  0
   -1.1524   -0.0000    2.2852 C   0  0  0  0  0  0  0  0  0  0  0  0
    3.5859   -0.1323    0.8636 C   0  0  0  0  0  0  0  0  0  0  0  0
    4.2176   -0.2316    2.1024 C   0  0  0  0  0  0  0  0  0  0  0  0
    4.3845   -0.1025   -0.2787 C   0  0  0  0  0  0  0  0  0  0  0  0
    5.5830   -0.3602    2.3033 C   0  0  0  0  0  0  0  0  0  0  0  0
    5.7422   -0.2307   -0.0793 C   0  0  0  0  0  0  0  0  0  0  0  0
    6.3249   -0.3285    1.1609 C   0  0  0  0  0  0  0  0  0  0  0  0
    6.5767   -0.2566   -1.1957 N   0  0  0  0  0  0  0  0  0  0  0  0
    6.4062    0.3150   -2.4295 C   0  0  0  0  0  0  0  0  0  0  0  0
    5.4452    0.9585   -2.7277 O   0  0  0  0  0  0  0  0  0  0  0  0
    7.4827    0.0759   -3.1761 O   0  0  0  0  0  0  0  0  0  0  0  0
    7.6583    0.5883   -4.5223 C   0  0  0  0  0  0  0  0  0  0  0  0
    6.5302    0.0786   -5.4179 C   0  0  0  0  0  0  0  0  0  0  0  0
    9.0343    0.1297   -4.9741 C   0  0  0  0  0  0  0  0  0  0  0  0
    7.6188    2.1155   -4.5006 C   0  0  0  0  0  0  0  0  0  0  0  0
    6.9146    2.8750   -5.4099 C   0  0  0  0  0  0  0  0  0  0  0  0
    8.3207    2.8049   -3.5241 C   0  0  0  0  0  0  0  0  0  0  0  0
    6.9485    4.2525   -5.3801 C   0  0  0  0  0  0  0  0  0  0  0  0
    8.3542    4.1667   -3.4947 C   0  0  0  0  0  0  0  0  0  0  0  0
    7.6959    4.9304   -4.4297 C   0  0  0  0  0  0  0  0  0  0  0  0
    7.6611    6.2692   -4.4091 F   0  0  0  0  0  0  0  0  0  0  0  0
    9.1874    4.8773   -2.4292 C   0  0  0  0  0  0  0  0  0  0  0  0
    9.4329    4.1445   -1.2592 O   0  0  0  0  0  0  0  0  0  0  0  0
  2  1  2  0
  3  2  1  0
  4  1  1  0
  5  4  2  0
  5  3  1  0
  6  2  1  0
  7  5  1  0
  8  7  2  0
  9  7  1  0
 10  8  1  0
 11  9  2  0
 12 11  1  0
 12 10  2  0
 13 11  1  0
 14 13  1  0
 15 14  2  0
 16 14  1  0
 17 16  1  0
 18 17  1  0
 19 17  1  0
 20 17  1  0
 21 20  2  0
 22 20  1  0
 23 21  1  0
 24 22  2  0
 25 23  2  0
 25 24  1  0
 26 25  1  0
 27 24  1  0
 28 27  1  0
M  END
>  <SMILES>  (19) 
Cc1ccc(-c2cccc(NC(=O)OC(C)(C)c3ccc(F)c(CO)c3)c2)o1

>  <scaffold>  (19) 
furan

$$$$

     RDKit          3D

 11 12  0  0  0  0  0  0  0  0999 V2000
    0.0000    0.0000   -0.0000 C   0  0  0  0  0  0  0  0  0  0  0  0
   -0.0000   -0.0000    1.3625 C   0  0  0  0  0  0  0  0  0  0  0  0
    1.3599    0.0000    1.7652 C   0  0  0  0  0  0  0  0  0  0  0  0
    1.2559    0.0000   -0.5080 O   0  0  0  0  0  0  0  0  0  0  0  0
    2.0974    0.0509    0.5426 C   0  0  0  0  0  0  0  0  0  0  0  0
   -1.1657   -0.0000   -0.9333 C   0  0  0  0  0  0  0  0  0  0  0  0
   -2.3379   -0.5544   -0.3390 N   0  0  0  0  0  0  0  0  0  0  0  0
   -3.3638    0.2299    0.0444 N   0  0  0  0  0  0  0  0  0  0  0  0
   -2.5011   -1.8432    0.0455 C   0  0  0  0  0  0  0  0  0  0  0  0
   -4.2445   -0.5481    0.5864 C   0  0  0  0  0  0  0  0  0  0  0  0
   -3.7431   -1.9018    0.6026 C   0  0  0  0  0  0  0  0  0  0  0  0
  2  1  2  0
  3  2  1  0
  4  1  1  0
  5  4  1  0
  5  3  2  0
  6  1  1  0
  7  6  1  0
  8  7  1  0
  9  7  1  0
 10  8  2  0
 11 10  1  0
 11  9  2  0
M  END
>  <SMILES>  (20) 
c1coc(Cn2cccn2)c1

>  <scaffold>  (20) 
furan

$$$$

     RDKit          3D

 21 22  0  0  0  0  0  0  0  0999 V2000
   -0.0000   -0.0000   -0.0000 C   0  0  0  0  0  0  0  0  0  0  0  0
    0.0000   -0.0000    1.3625 C   0  0  0  0  0  0  0  0  0  0  0  0
    1.3599    0.0000    1.7652 C   0  0  0  0  0  0  0  0  0  0  0  0
    1.2559    0.0000   -0.5080 O   0  0  0  0  0  0  0  0  0  0  0  0
    2.0974    0.0509    0.5426 C   0  0  0  0  0  0  0  0  0  0  0  0
   -1.1117    0.0546   -0.9955 C   0  0  0  0  0  0  0  0  0  0  0  0
   -2.3668   -0.3261   -0.3943 N   0  0  0  0  0  0  0  0  0  0  0  0
   -3.1878   -1.1791   -1.0206 C   0  0  0  0  0  0  0  0  0  0  0  0
   -3.0654   -1.6283   -2.1430 O   0  0  0  0  0  0  0  0  0  0  0  0
   -4.3205   -1.4650   -0.2597 N   0  0  0  0  0  0  0  0  0  0  0  0
   -4.3569   -1.0285    1.0893 O   0  0  0  0  0  0  0  0  0  0  0  0
   -5.2512   -2.4699   -0.6578 C   0  0  0  0  0  0  0  0  0  0  0  0
   -6.6128   -2.2390   -0.0898 C   0  0  0  0  0  0  0  0  0  0  0  0
   -7.1239   -1.0296    0.3027 C   0  0  0  0  0  0  0  0  0  0  0  0
   -7.4780   -3.3486    0.0037 C   0  0  0  0  0  0  0  0  0  0  0  0
   -8.4109   -1.0096    0.7495 N   0  0  0  0  0  0  0  0  0  0  0  0
   -8.7680   -3.3244    0.4417 C   0  0  0  0  0  0  0  0  0  0  0  0
   -9.3213   -2.0745    0.8054 C   0  0  0  0  0  0  0  0  0  0  0  0
  -10.4748   -1.9339    1.1838 O   0  0  0  0  0  0  0  0  0  0  0  0
   -8.8863    0.2763    1.1992 C   0  0  0  0  0  0  0  0  0  0  0  0
   -9.5385   -4.4136    0.5587 F   0  0  0  0  0  0  0  0  0  0  0  0
  2  1  2  0
  3  2  1  0
  4  1  1  0
  5  4  1  0
  5  3  2  0
  6  1  1  0
  7  6  1  0
  8  7  1  0
  9  8  2  0
 10  8  1  0
 11 10  1  0
 12 10  1  0
 13 12  1  0
 14 13  2  0
 15 13  1  0
 16 14  1  0
 17 15  2  0
 18 17  1  0
 18 16  1  0
 19 18  2  0
 20 16  1  0
 21 17  1  0
M  END
>  <SMILES>  (21) 
Cn1cc(CN(O)C(=O)NCc2ccco2)cc(F)c1=O

>  <scaffold>  (21) 
furan

$$$$

     RDKit          3D

 22 23  0  0  0  0  0  0  0  0999 V2000
    0.0000    0.0000   -0.0000 C   0  0  0  0  0  0  0  0  0  0  0  0
   -0.0000    0.0000    1.3625 C   0  0  0  0  0  0  0  0  0  0  0  0
    1.2637    0.0000    1.8290 O   0  0  0  0  0  0  0  0  0  0  0  0
    1.3566    0.0000   -0.4137 C   0  0  0  0  0  0  0  0  0  0  0  0
    2.0888   -0.0524    0.7342 C   0  0  0  0  0  0  0  0  0  0  0  0
   -1.1590    0.0000    2.2905 C   0  0  0  0  0  0  0  0  0  0  0  0
    3.4476   -0.0232    0.9633 N   0  0  0  0  0  0  0  0  0  0  0  0
    4.4570   -0.5290    0.1591 C   0  0  0  0  0  0  0  0  0  0  0  0
    5.5954   -0.2092    0.4390 O   0  0  0  0  0  0  0  0  0  0  0  0
    4.0685   -1.3754   -0.8247 N   0  0  0  0  0  0  0  0  0  0  0  0
    4.9846   -1.8557   -1.8306 C   0  0  0  0  0  0  0  0  0  0  0  0
    4.7668   -1.1536   -3.1109 C   0  0  0  0  0  0  0  0  0  0  0  0
    4.3702   -1.7353   -4.2056 N   0  0  0  0  0  0  0  0  0  0  0  0
    4.9213    0.2547   -3.3838 C   0  0  0  0  0  0  0  0  0  0  0  0
    4.2385   -0.7670   -5.1326 O   0  0  0  0  0  0  0  0  0  0  0  0
    4.5506    0.3873   -4.6882 C   0  0  0  0  0  0  0  0  0  0  0  0
    4.5181    1.5370   -5.6406 C   0  0  2  0  0  0  0  0  0  0  0  0
    4.1605    2.8470   -4.9403 C   0  0  0  0  0  0  0  0  0  0  0  0
    3.5671    1.2123   -6.7915 C   0  0  0  0  0  0  0  0  0  0  0  0
    3.8675    1.3684   -7.9298 O   0  0  0  0  0  0  0  0  0  0  0  0
    2.4041    0.7426   -6.3673 O   0  0  0  0  0  0  0  0  0  0  0  0
    1.4423    0.3472   -7.3556 C   0  0  0  0  0  0  0  0  0  0  0  0
  2  1  2  0
  3  2  1  0
  4  1  1  0
  5  4  2  0
  5  3  1  0
  6  2  1  0
  7  5  1  0
  8  7  1  0
  9  8  2  0
 10  8  1  0
 11 10  1  0
 12 11  1  0
 13 12  2  0
 14 12  1  0
 15 13  1  0
 16 15  1  0
 16 14  2  0
 17 16  1  0
 17 18  1  1
 19 17  1  0
 20 19  2  0
 21 19  1  0
 22 21  1  0
M  END
>  <SMILES>  (22) 
COC(=O)C(C)c1cc(CNC(=O)Nc2ccc(C)o2)no1

>  <scaffold>  (22) 
furan

$$$$

     RDKit          3D

 17 18  0  0  0  0  0  0  0  0999 V2000
   -0.0000    0.0000    0.0000 C   0  0  0  0  0  0  0  0  0  0  0  0
    0.0000   -0.0000    1.3704 C   0  0  0  0  0  0  0  0  0  0  0  0
    1.2565   -0.0000    1.8342 O   0  0  0  0  0  0  0  0  0  0  0  0
    1.3489    0.0000   -0.4113 C   0  0  0  0  0  0  0  0  0  0  0  0
    2.0853    0.0527    0.7432 C   0  0  0  0  0  0  0  0  0  0  0  0
   -1.1524   -0.0000    2.2930 C   0  0  0  0  0  0  0  0  0  0  0  0
    3.5582    0.0152    0.8351 C   0  0  0  0  0  0  0  0  0  0  0  0
    4.2383   -0.4493   -0.0584 O   0  0  0  0  0  0  0  0  0  0  0  0
    4.0409    0.4838    2.0199 N   0  0  0  0  0  0  0  0  0  0  0  0
    3.4610    1.2317    3.0763 C   0  0  0  0  0  0  0  0  0  0  0  0
    2.9116    2.4839    2.8048 C   0  0  0  0  0  0  0  0  0  0  0  0
    3.3693    0.7422    4.3699 C   0  0  0  0  0  0  0  0  0  0  0  0
    2.4009    3.1986    3.8771 C   0  0  0  0  0  0  0  0  0  0  0  0
    2.8600    1.4502    5.4370 C   0  0  0  0  0  0  0  0  0  0  0  0
    2.4723    2.7472    5.1690 C   0  0  0  0  0  0  0  0  0  0  0  0
    2.7137    0.7627    7.0211 Cl  0  0  0  0  0  0  0  0  0  0  0  0
   -2.3388   -0.4245    1.7155 O   0  0  0  0  0  0  0  0  0  0  0  0
  2  1  2  0
  3  2  1  0
  4  1  1  0
  5  4  2  0
  5  3  1  0
  6  2  1  0
  7  5  1  0
  8  7  2  0
  9  7  1  0
 10  9  1  0
 11 10  2  0
 12 10  1  0
 13 11  1  0
 14 12  2  0
 15 13  2  0
 15 14  1  0
 16 14  1  0
 17  6  1  0
M  END
>  <SMILES>  (23) 
O=C(Nc1cccc(Cl)c1)c1ccc(CO)o1

>  <scaffold>  (23) 
furan

$$$$

     RDKit          3D

 16 17  0  0  0  0  0  0  0  0999 V2000
   -0.0000   -0.0000   -0.0000 C   0  0  0  0  0  0  0  0  0  0  0  0
    0.0000    0.0000    1.3704 C   0  0  0  0  0  0  0  0  0  0  0  0
    1.2565    0.0000    1.8342 O   0  0  0  0  0  0  0  0  0  0  0  0
    1.3412   -0.0000   -0.4090 C   0  0  0  0  0  0  0  0  0  0  0  0
    2.1475   -0.0529    0.7173 C   0  0  0  0  0  0  0  0  0  0  0  0
   -1.0465   -0.1031    2.2123 O   0  0  0  0  0  0  0  0  0  0  0  0
    3.5805   -0.0195    0.8822 C   0  0  0  0  0  0  0  0  0  0  0  0
    4.1823   -0.0257    1.9219 O   0  0  0  0  0  0  0  0  0  0  0  0
    4.1407    0.0258   -0.3505 O   0  0  0  0  0  0  0  0  0  0  0  0
   -2.2218    0.5251    1.9284 C   0  0  0  0  0  0  0  0  0  0  0  0
   -2.4116    1.2423    0.9748 O   0  0  0  0  0  0  0  0  0  0  0  0
   -3.1862    0.2025    2.9635 C   0  0  0  0  0  0  0  0  0  0  0  0
   -4.4646    0.6867    3.0588 C   0  0  0  0  0  0  0  0  0  0  0  0
   -2.8068   -0.8210    4.2968 S   0  0  0  0  0  0  0  0  0  0  0  0
   -5.1421    0.1382    4.1365 C   0  0  0  0  0  0  0  0  0  0  0  0
   -4.4442   -0.6738    4.8754 C   0  0  0  0  0  0  0  0  0  0  0  0
  2  1  2  0
  3  2  1  0
  4  1  1  0
  5  4  2  0
  5  3  1  0
  6  2  1  0
  7  5  1  0
  8  7  2  0
  9  7  1  0
 10  6  1  0
 11 10  2  0
 12 10  1  0
 13 12  2  0
 14 12  1  0
 15 13  1  0
 16 15  2  0
 16 14  1  0
M  END
>  <SMILES>  (24) 
O=C(O)c1ccc(OC(=O)c2cccs2)o1

>  <scaffold>  (24) 
furan

$$$$

     RDKit          3D

 25 26  0  0  0  0  0  0  0  0999 V2000
    0.0000   -0.0000   -0.0000 C   0  0  0  0  0  0  0  0  0  0  0  0
   -0.0000   -0.0000    1.3782 C   0  0  0  0  0  0  0  0  0  0  0  0
    1.3522   -0.0000    1.7786 C   0  0  0  0  0  0  0  0  0  0  0  0
    1.2559    0.0000   -0.5080 O   0  0  0  0  0  0  0  0  0  0  0  0
    2.0926   -0.0506    0.5366 C   0  0  0  0  0  0  0  0  0  0  0  0
   -1.1393   -0.0000   -0.9122 C   0  0  0  0  0  0  0  0  0  0  0  0
   -2.2949    0.0000   -0.5598 O   0  0  0  0  0  0  0  0  0  0  0  0
   -0.7398    0.0526   -2.1814 O   0  0  0  0  0  0  0  0  0  0  0  0
    3.5604   -0.0032    0.2659 C   0  0  0  0  0  0  0  0  0  0  0  0
    4.2723   -0.4513    1.3776 O   0  0  0  0  0  0  0  0  0  0  0  0
   -1.7651    0.1139   -3.1712 C   0  0  0  0  0  0  0  0  0  0  0  0
   -2.3245   -1.2758   -3.4717 C   0  0  0  0  0  0  0  0  0  0  0  0
   -3.3777   -1.2716   -4.5544 C   0  0  0  0  0  0  0  0  0  0  0  0
   -4.6252   -0.6888   -4.3361 C   0  0  0  0  0  0  0  0  0  0  0  0
   -3.1700   -1.8484   -5.7976 C   0  0  0  0  0  0  0  0  0  0  0  0
   -5.5417   -0.6655   -5.3758 C   0  0  0  0  0  0  0  0  0  0  0  0
   -4.0863   -1.8259   -6.8374 C   0  0  0  0  0  0  0  0  0  0  0  0
   -5.2972   -1.1902   -6.6353 C   0  0  0  0  0  0  0  0  0  0  0  0
   -6.2011   -1.1019   -7.6302 F   0  0  0  0  0  0  0  0  0  0  0  0
   -3.9464   -2.4192   -8.0560 O   0  0  0  0  0  0  0  0  0  0  0  0
   -2.6566   -2.8589   -8.4189 C   0  0  0  0  0  0  0  0  0  0  0  0
   -1.7074   -1.7215   -8.7925 C   0  0  0  0  0  0  0  0  0  0  0  0
   -2.0770   -1.0704  -10.1445 C   0  0  0  0  0  0  0  0  0  0  0  0
   -1.5015   -1.8526  -11.3241 C   0  0  0  0  0  0  0  0  0  0  0  0
   -1.5362    0.3585  -10.1477 C   0  0  0  0  0  0  0  0  0  0  0  0
  2  1  2  0
  3  2  1  0
  4  1  1  0
  5  4  1  0
  5  3  2  0
  6  1  1  0
  7  6  2  0
  8  6  1  0
  9  5  1  0
 10  9  1  0
 11  8  1  0
 12 11  1  0
 13 12  1  0
 14 13  2  0
 15 13  1  0
 16 14  1  0
 17 15  2  0
 18 16  2  0
 18 17  1  0
 19 18  1  0
 20 17  1  0
 21 20  1  0
 22 21  1  0
 23 22  1  0
 24 23  1  0
 25 23  1  0
M  END
>  <SMILES>  (25) 
CC(C)CCOc1cc(CCOC(=O)c2ccc(CO)o2)ccc1F

>  <scaffold>  (25) 
furan

$$$$

     RDKit          3D

 19 20  0  0  0  0  0  0  0  0999 V2000
   -0.0000    0.0000   -0.0000 C   0  0  0  0  0  0  0  0  0  0  0  0
   -0.0000    0.0000    1.3625 C   0  0  0  0  0  0  0  0  0  0  0  0
    1.2415    0.0000    1.8442 O   0  0  0  0  0  0  0  0  0  0  0  0
    1.3489    0.0000   -0.4113 C   0  0  0  0  0  0  0  0  0  0  0  0
    2.0895   -0.0530    0.7498 C   0  0  0  0  0  0  0  0  0  0  0  0
    3.5544   -0.1342    0.9141 C   0  0  0  0  0  0  0  0  0  0  0  0
    4.3421   -0.1667   -0.0106 O   0  0  0  0  0  0  0  0  0  0  0  0
    3.9054   -0.2216    2.2277 N   0  0  0  0  0  0  0  0  0  0  0  0
    5.1663   -0.3686    2.7845 C   0  0  0  0  0  0  0  0  0  0  0  0
    5.1729   -0.4737    4.0892 N   0  0  0  0  0  0  0  0  0  0  0  0
    6.3706   -0.4571    2.0253 C   0  0  0  0  0  0  0  0  0  0  0  0
    6.2669   -0.6700    4.7808 N   0  0  0  0  0  0  0  0  0  0  0  0
    7.4834   -0.6483    2.7314 C   0  0  0  0  0  0  0  0  0  0  0  0
    7.4996   -0.7761    4.1213 C   0  0  0  0  0  0  0  0  0  0  0  0
    8.4791   -1.0001    4.7921 O   0  0  0  0  0  0  0  0  0  0  0  0
    6.1322   -0.8238    6.2091 C   0  0  0  0  0  0  0  0  0  0  0  0
    6.0158   -2.3023    6.5761 C   0  0  0  0  0  0  0  0  0  0  0  0
    5.8160   -2.5165    8.0756 C   0  0  0  0  0  0  0  0  0  0  0  0
    7.0768   -2.2175    8.8851 C   0  0  0  0  0  0  0  0  0  0  0  0
  2  1  2  0
  3  2  1  0
  4  1  1  0
  5  4  2  0
  5  3  1  0
  6  5  1  0
  7  6  2  0
  8  6  1  0
  9  8  1  0
 10  9  2  0
 11  9  1  0
 12 10  1  0
 13 11  2  0
 14 13  1  0
 14 12  1  0
 15 14  2  0
 16 12  1  0
 17 16  1  0
 18 17  1  0
 19 18  1  0
M  END
>  <SMILES>  (26) 
CCCCn1nc(NC(=O)c2ccco2)ccc1=O

>  <scaffold>  (26) 
furan

$$$$

     RDKit          3D

 26 27  0  0  0  0  0  0  0  0999 V2000
    0.0000   -0.0000    0.0000 C   0  0  0  0  0  0  0  0  0  0  0  0
    0.0000   -0.0000    1.3625 C   0  0  0  0  0  0  0  0  0  0  0  0
    1.2487   -0.0000    1.8470 O   0  0  0  0  0  0  0  0  0  0  0  0
    1.3489   -0.0000   -0.4113 C   0  0  0  0  0  0  0  0  0  0  0  0
    2.0853   -0.0527    0.7432 C   0  0  0  0  0  0  0  0  0  0  0  0
    3.5335   -0.1330    0.9056 C   0  0  0  0  0  0  0  0  0  0  0  0
    4.3529   -0.1105    0.0274 O   0  0  0  0  0  0  0  0  0  0  0  0
    3.8108   -0.2152    2.2133 O   0  0  0  0  0  0  0  0  0  0  0  0
    5.1750   -0.3579    2.5739 C   0  0  0  0  0  0  0  0  0  0  0  0
    5.3455   -1.6529    3.2799 C   0  0  0  0  0  0  0  0  0  0  0  0
    4.4131   -2.3543    3.8046 N   0  0  0  0  0  0  0  0  0  0  0  0
    6.9460   -2.2899    3.4695 S   0  0  0  0  0  0  0  0  0  0  0  0
    4.8404   -3.4801    4.4421 C   0  0  0  0  0  0  0  0  0  0  0  0
    6.1984   -3.5838    4.3471 C   0  0  0  0  0  0  0  0  0  0  0  0
    4.0144   -4.3530    4.9980 O   0  0  0  0  0  0  0  0  0  0  0  0
    4.4124   -5.5102    5.7149 C   0  0  0  0  0  0  0  0  0  0  0  0
    4.9386   -5.1278    7.0973 C   0  0  0  0  0  0  0  0  0  0  0  0
    3.9053   -4.4035    7.9587 C   0  0  0  0  0  0  0  0  0  0  0  0
    4.4624   -4.0925    9.3470 C   0  0  0  0  0  0  0  0  0  0  0  0
    3.4536   -3.4195   10.2620 C   0  0  0  0  0  0  0  0  0  0  0  0
    4.0752   -3.0813   11.6160 C   0  0  0  0  0  0  0  0  0  0  0  0
    3.0848   -2.4510   12.5940 C   0  0  0  0  0  0  0  0  0  0  0  0
    3.7521   -2.1781   13.9710 C   0  0  0  0  0  0  0  0  0  0  0  0
    2.7383   -1.6168   14.8992 C   0  0  0  0  0  0  0  0  0  0  0  0
    2.1863   -2.3378   15.8732 C   0  0  0  0  0  0  0  0  0  0  0  0
    1.1614   -1.8536   16.7661 C   0  0  0  0  0  0  0  0  0  0  0  0
  2  1  2  0
  3  2  1  0
  4  1  1  0
  5  4  2  0
  5  3  1  0
  6  5  1  0
  7  6  2  0
  8  6  1  0
  9  8  1  0
 10  9  1  0
 11 10  2  0
 12 10  1  0
 13 11  1  0
 14 13  2  0
 14 12  1  0
 15 13  1  0
 16 15  1  0
 17 16  1  0
 18 17  1  0
 19 18  1  0
 20 19  1  0
 21 20  1  0
 22 21  1  0
 23 22  1  0
 24 23  1  0
 25 24  2  0
 26 25  1  0
M  END
>  <SMILES>  (27) 
CC=CCCCCCCCCOc1csc(COC(=O)c2ccco2)n1

>  <scaffold>  (27) 
furan

$$$$

     RDKit          3D

 33 35  0  0  0  0  0  0  0  0999 V2000
   -0.0000   -0.0000    0.0000 C   0  0  0  0  0  0  0  0  0  0  0  0
   -0.0000    0.0000    1.3625 C   0  0  0  0  0  0  0  0  0  0  0  0
    1.3599    0.0000    1.7652 C   0  0  0  0  0  0  0  0  0  0  0  0
    1.2559    0.0000   -0.5080 O   0  0  0  0  0  0  0  0  0  0  0  0
    2.0974   -0.0509    0.5426 C   0  0  0  0  0  0  0  0  0  0  0  0
   -1.1181    0.0549   -1.0012 C   0  0  0  0  0  0  0  0  0  0  0  0
   -1.6715    1.3909   -1.1222 N   0  0  0  0  0  0  0  0  0  0  0  0
   -2.7734    1.7616   -0.4572 C   0  0  0  0  0  0  0  0  0  0  0  0
   -3.4822    1.0333    0.2089 O   0  0  0  0  0  0  0  0  0  0  0  0
   -3.1056    3.1204   -0.5528 N   0  0  0  0  0  0  0  0  0  0  0  0
   -2.4456    4.1398   -1.1708 C   0  0  0  0  0  0  0  0  0  0  0  0
   -1.3382    3.9067   -1.8581 N   0  0  0  0  0  0  0  0  0  0  0  0
   -2.9773    5.4418   -1.0679 C   0  0  0  0  0  0  0  0  0  0  0  0
   -0.6547    4.8504   -2.4213 N   0  0  0  0  0  0  0  0  0  0  0  0
   -2.2537    6.4414   -1.6637 C   0  0  0  0  0  0  0  0  0  0  0  0
   -1.0501    6.0945   -2.3243 C   0  0  0  0  0  0  0  0  0  0  0  0
   -0.2771    7.0532   -2.8889 O   0  0  0  0  0  0  0  0  0  0  0  0
    0.5240    6.7967   -3.9508 C   0  0  0  0  0  0  0  0  0  0  0  0
    0.2938    5.7538   -4.7207 N   0  0  0  0  0  0  0  0  0  0  0  0
    1.5070    7.7413   -4.1530 C   0  0  0  0  0  0  0  0  0  0  0  0
    1.0783    5.5676   -5.7806 C   0  0  0  0  0  0  0  0  0  0  0  0
    2.3300    7.5445   -5.2710 C   0  0  0  0  0  0  0  0  0  0  0  0
    2.1289    6.3994   -6.1351 C   0  0  0  0  0  0  0  0  0  0  0  0
    2.9312    6.1431   -7.1962 F   0  0  0  0  0  0  0  0  0  0  0  0
    3.3292    8.4116   -5.4797 N   0  0  0  0  0  0  0  0  0  0  0  0
    0.7207    4.5193   -6.5062 O   0  0  0  0  0  0  0  0  0  0  0  0
    1.4381    4.2505   -7.6805 C   0  0  0  0  0  0  0  0  0  0  0  0
    1.0374    5.1796   -8.8253 C   0  0  0  0  0  0  0  0  0  0  0  0
   -0.4260    4.9854   -9.2188 C   0  0  0  0  0  0  0  0  0  0  0  0
   -0.8623    5.8540  -10.3976 C   0  0  0  0  0  0  0  0  0  0  0  0
   -2.3150    5.5827  -10.7854 C   0  0  0  0  0  0  0  0  0  0  0  0
   -2.6882    6.4437  -12.0134 C   0  0  0  0  0  0  0  0  0  0  0  0
   -1.9552    6.1067  -13.1504 O   0  0  0  0  0  0  0  0  0  0  0  0
  2  1  2  0
  3  2  1  0
  4  1  1  0
  5  4  1  0
  5  3  2  0
  6  1  1  0
  7  6  1  0
  8  7  1  0
  9  8  2  0
 10  8  1  0
 11 10  1  0
 12 11  2  0
 13 11  1  0
 14 12  1  0
 15 13  2  0
 16 14  2  0
 16 15  1  0
 17 16  1  0
 18 17  1  0
 19 18  2  0
 20 18  1  0
 21 19  1  0
 22 20  2  0
 23 21  2  0
 23 22  1  0
 24 23  1  0
 25 22  1  0
 26 21  1  0
 27 26  1  0
 28 27  1  0
 29 28  1  0
 30 29  1  0
 31 30  1  0
 32 31  1  0
 33 32  1  0
M  END
>  <SMILES>  (28) 
Nc1cc(Oc2ccc(NC(=O)NCc3ccco3)nn2)nc(OCCCCCCO)c1F

>  <scaffold>  (28) 
furan

$$$$

     RDKit          3D

 20 21  0  0  0  0  0  0  0  0999 V2000
   -0.0000    0.0000    0.0000 C   0  0  0  0  0  0  0  0  0  0  0  0
    0.0000   -0.0000    1.3625 C   0  0  0  0  0  0  0  0  0  0  0  0
    1.3599    0.0000    1.7652 C   0  0  0  0  0  0  0  0  0  0  0  0
    1.2559   -0.0000   -0.5080 O   0  0  0  0  0  0  0  0  0  0  0  0
    2.0974    0.0509    0.5426 C   0  0  0  0  0  0  0  0  0  0  0  0
   -1.1053   -0.0543   -0.9898 C   0  0  0  0  0  0  0  0  0  0  0  0
   -1.1053   -1.3182   -1.7196 N   0  0  0  0  0  0  0  0  0  0  0  0
   -1.0783   -2.3865   -0.9506 N   0  0  0  0  0  0  0  0  0  0  0  0
   -1.0291   -1.3295   -3.1036 C   0  0  0  0  0  0  0  0  0  0  0  0
   -1.0254   -3.5550   -1.4866 C   0  0  0  0  0  0  0  0  0  0  0  0
   -1.0656   -0.3249   -3.7487 O   0  0  0  0  0  0  0  0  0  0  0  0
   -0.9835   -2.5905   -3.6772 N   0  0  0  0  0  0  0  0  0  0  0  0
   -0.9931   -3.7676   -2.9217 C   0  0  0  0  0  0  0  0  0  0  0  0
   -0.8978   -4.8685   -3.4759 O   0  0  0  0  0  0  0  0  0  0  0  0
   -1.0509   -4.7493   -0.5622 C   0  0  0  0  0  0  0  0  0  0  0  0
   -1.0531   -5.8828   -0.9599 O   0  0  0  0  0  0  0  0  0  0  0  0
   -1.0787   -4.3588    0.7027 O   0  0  0  0  0  0  0  0  0  0  0  0
   -1.0495   -5.3449    1.7330 C   0  0  0  0  0  0  0  0  0  0  0  0
    0.3788   -5.8278    1.9801 C   0  0  0  0  0  0  0  0  0  0  0  0
    0.4579   -6.9264    3.0390 C   0  0  0  0  0  0  0  0  0  0  0  0
  2  1  2  0
  3  2  1  0
  4  1  1  0
  5  4  1  0
  5  3  2  0
  6  1  1  0
  7  6  1  0
  8  7  1  0
  9  7  1  0
 10  8  2  0
 11  9  2  0
 12  9  1  0
 13 12  1  0
 13 10  1  0
 14 13  2  0
 15 10  1  0
 16 15  2  0
 17 15  1  0
 18 17  1  0
 19 18  1  0
 20 19  1  0
M  END
>  <SMILES>  (29) 
CCCOC(=O)c1nn(Cc2ccco2)c(=O)[nH]c1=O

>  <scaffold>  (29) 
furan

$$$$

     RDKit          3D

 42 43  0  0  0  0  0  0  0  0999 V2000
    0.0000    0.0000   -0.0000 C   0  0  0  0  0  0  0  0  0  0  0  0
    0.0000   -0.0000    1.3625 C   0  0  0  0  0  0  0  0  0  0  0  0
    1.2487   -0.0000    1.8470 O   0  0  0  0  0  0  0  0  0  0  0  0
    1.3489    0.0000   -0.4113 C   0  0  0  0  0  0  0  0  0  0  0  0
    2.0853   -0.0527    0.7432 C   0  0  0  0  0  0  0  0  0  0  0  0
    3.5582   -0.0152    0.8351 C   0  0  0  0  0  0  0  0  0  0  0  0
    4.2948    0.1227   -0.1038 O   0  0  0  0  0  0  0  0  0  0  0  0
    3.9132   -0.1430    2.1443 N   0  0  0  0  0  0  0  0  0  0  0  0
    5.2266   -0.0847    2.5024 N   0  0  0  0  0  0  0  0  0  0  0  0
    5.4760    0.1106    3.7419 C   0  0  0  0  0  0  0  0  0  0  0  0
    6.8278    0.1284    4.1708 C   0  0  0  0  0  0  0  0  0  0  0  0
    8.0371   -0.1530    3.5545 C   0  0  0  0  0  0  0  0  0  0  0  0
    7.1040    0.5571    5.8271 S   0  0  0  0  0  0  0  0  0  0  0  0
    9.1920    0.0404    4.3256 C   0  0  0  0  0  0  0  0  0  0  0  0
    8.8060    0.4097    5.4819 C   0  0  0  0  0  0  0  0  0  0  0  0
    8.0975   -0.6447    2.1639 C   0  0  0  0  0  0  0  0  0  0  0  0
    9.7504    0.7383    6.6141 C   0  0  2  0  0  0  0  0  0  0  0  0
   11.1859    0.4062    6.2098 C   0  0  0  0  0  0  0  0  0  0  0  0
    9.4106   -0.0792    7.8593 C   0  0  1  0  0  0  0  0  0  0  0  0
    8.4678    0.1514    8.5788 O   0  0  0  0  0  0  0  0  0  0  0  0
   10.2364   -1.1248    7.9951 O   0  0  0  0  0  0  0  0  0  0  0  0
    9.9866   -1.9999    9.0935 C   0  0  0  0  0  0  0  0  0  0  0  0
    8.8733   -3.0048    8.7587 C   0  0  0  0  0  0  0  0  0  0  0  0
    8.6373   -3.6802    9.9460 O   0  0  0  0  0  0  0  0  0  0  0  0
    7.7985   -4.8042    9.7345 C   0  0  0  0  0  0  0  0  0  0  0  0
    8.5395   -6.0235    9.1881 C   0  0  0  0  0  0  0  0  0  0  0  0
    7.5680   -7.1522    8.8466 C   0  0  0  0  0  0  0  0  0  0  0  0
    8.2549   -8.3768    8.2441 C   0  0  0  0  0  0  0  0  0  0  0  0
    7.2360   -9.4523    7.8709 C   0  0  0  0  0  0  0  0  0  0  0  0
    7.8779  -10.7219    7.3135 C   0  0  0  0  0  0  0  0  0  0  0  0
    6.8100  -11.7479    6.9036 C   0  0  0  0  0  0  0  0  0  0  0  0
    7.5077  -12.9865    6.2973 C   0  0  0  0  0  0  0  0  0  0  0  0
    6.4050  -13.9485    5.8580 C   0  0  0  0  0  0  0  0  0  0  0  0
    7.1379  -15.1180    5.2233 C   0  0  0  0  0  0  0  0  0  0  0  0
    6.0723  -16.0883    4.7160 C   0  0  0  0  0  0  0  0  0  0  0  0
    6.8561  -17.2134    4.0420 C   0  0  0  0  0  0  0  0  0  0  0  0
    5.7545  -18.1769    3.6035 C   0  0  0  0  0  0  0  0  0  0  0  0
    6.4939  -19.3533    2.9680 C   0  0  0  0  0  0  0  0  0  0  0  0
    5.3644  -20.3005    2.6007 C   0  0  0  0  0  0  0  0  0  0  0  0
    6.1468  -21.4256    1.9251 C   0  0  0  0  0  0  0  0  0  0  0  0
    4.9838  -22.3066    1.5344 C   0  0  0  0  0  0  0  0  0  0  0  0
    5.8161  -23.4302    0.9187 C   0  0  0  0  0  0  0  0  0  0  0  0
  2  1  2  0
  3  2  1  0
  4  1  1  0
  5  4  2  0
  5  3  1  0
  6  5  1  0
  7  6  2  0
  8  6  1  0
  9  8  1  0
 10  9  2  0
 11 10  1  0
 12 11  2  0
 13 11  1  0
 14 12  1  0
 15 14  2  0
 15 13  1  0
 16 12  1  0
 17 15  1  0
 17 18  1  6
 19 17  1  0
 19 20  1  6
 21 19  1  0
 22 21  1  0
 23 22  1  0
 24 23  1  0
 25 24  1  0
 26 25  1  0
 27 26  1  0
 28 27  1  0
 29 28  1  0
 30 29  1  0
 31 30  1  0
 32 31  1  0
 33 32  1  0
 34 33  1  0
 35 34  1  0
 36 35  1  0
 37 36  1  0
 38 37  1  0
 39 38  1  0
 40 39  1  0
 41 40  1  0
 42 41  1  0
M  END
>  <SMILES>  (30) 
CCCCCCCCCCCCCCCCCCOCCOC(O)C(C)c1cc(C)c(C=NNC(=O)c2ccco2)s1

>  <scaffold>  (30) 
furan

$$$$

     RDKit          3D

 34 37  0  0  0  0  0  0  0  0999 V2000
   -0.0000    0.0000    0.0000 C   0  0  0  0  0  0  0  0  0  0  0  0
   -0.0000    0.0000    1.3625 C   0  0  0  0  0  0  0  0  0  0  0  0
    1.2487   -0.0000    1.8470 O   0  0  0  0  0  0  0  0  0  0  0  0
    1.3489    0.0000   -0.4113 C   0  0  0  0  0  0  0  0  0  0  0  0
    2.0853   -0.0527    0.7432 C   0  0  0  0  0  0  0  0  0  0  0  0
    3.5252   -0.1325    0.9046 C   0  0  0  0  0  0  0  0  0  0  0  0
    4.2958   -0.1623   -0.1811 N   0  0  0  0  0  0  0  0  0  0  0  0
    4.0929   -0.2329    2.1828 C   0  0  0  0  0  0  0  0  0  0  0  0
    5.5663   -0.2784   -0.0852 N   0  0  0  0  0  0  0  0  0  0  0  0
    5.4386   -0.3536    2.2821 C   0  0  0  0  0  0  0  0  0  0  0  0
    6.1658   -0.3731    1.0830 C   0  0  0  0  0  0  0  0  0  0  0  0
    7.8740   -0.5895    1.1477 Cl  0  0  0  0  0  0  0  0  0  0  0  0
   -1.4140   -0.0695    2.3793 S   0  0  0  0  0  0  0  0  0  0  0  0
   -0.6913    0.4237    3.9215 C   0  0  0  0  0  0  0  0  0  0  0  0
    0.1289    1.5339    4.0489 C   0  0  0  0  0  0  0  0  0  0  0  0
   -1.0696   -0.3266    5.0339 C   0  0  0  0  0  0  0  0  0  0  0  0
    0.6282    1.9065    5.2783 C   0  0  0  0  0  0  0  0  0  0  0  0
   -0.5714    0.0508    6.2623 C   0  0  0  0  0  0  0  0  0  0  0  0
    0.2507    1.1852    6.4100 C   0  0  0  0  0  0  0  0  0  0  0  0
    0.8751    1.7506    7.9702 S   0  0  0  0  0  0  0  0  0  0  0  0
    0.7565    0.3181    9.0429 C   0  0  0  0  0  0  0  0  0  0  0  0
    1.4225   -0.8508    8.7432 C   0  0  0  0  0  0  0  0  0  0  0  0
    0.0261    0.4221   10.2164 C   0  0  0  0  0  0  0  0  0  0  0  0
    1.3405   -1.9150    9.6276 C   0  0  0  0  0  0  0  0  0  0  0  0
   -0.0520   -0.6365   11.0955 C   0  0  0  0  0  0  0  0  0  0  0  0
    0.6520   -1.7970   10.8249 C   0  0  0  0  0  0  0  0  0  0  0  0
    0.5472   -2.7438   11.7882 O   0  0  0  0  0  0  0  0  0  0  0  0
    1.1359   -4.0151   11.5679 C   0  0  0  0  0  0  0  0  0  0  0  0
    0.2964   -4.8787   10.6278 C   0  0  0  0  0  0  0  0  0  0  0  0
    0.9155   -6.2399   10.3144 C   0  0  0  0  0  0  0  0  0  0  0  0
    0.9772   -7.1685   11.5262 C   0  0  0  0  0  0  0  0  0  0  0  0
    1.5528   -8.5323   11.1482 C   0  0  0  0  0  0  0  0  0  0  0  0
    1.6437   -9.4016   12.4013 C   0  0  0  0  0  0  0  0  0  0  0  0
    2.2657  -10.7610   12.0858 C   0  0  0  0  0  0  0  0  0  0  0  0
  2  1  2  0
  3  2  1  0
  4  1  1  0
  5  4  2  0
  5  3  1  0
  6  5  1  0
  7  6  2  0
  8  6  1  0
  9  7  1  0
 10  8  2  0
 11 10  1  0
 11  9  2  0
 12 11  1  0
 13  2  1  0
 14 13  1  0
 15 14  2  0
 16 14  1  0
 17 15  1  0
 18 16  2  0
 19 17  2  0
 19 18  1  0
 20 19  1  0
 21 20  1  0
 22 21  2  0
 23 21  1  0
 24 22  1  0
 25 23  2  0
 26 24  2  0
 26 25  1  0
 27 26  1  0
 28 27  1  0
 29 28  1  0
 30 29  1  0
 31 30  1  0
 32 31  1  0
 33 32  1  0
 34 33  1  0
M  END
>  <SMILES>  (31) 
CCCCCCCOc1ccc(Sc2ccc(Sc3ccc(-c4ccc(Cl)nn4)o3)cc2)cc1

>  <scaffold>  (31) 
furan

$$$$

     RDKit          3D

 27 29  0  0  0  0  0  0  0  0999 V2000
   -0.0000   -0.0000    0.0000 C   0  0  0  0  0  0  0  0  0  0  0  0
    0.0000   -0.0000    1.3625 C   0  0  0  0  0  0  0  0  0  0  0  0
    1.2487   -0.0000    1.8470 O   0  0  0  0  0  0  0  0  0  0  0  0
    1.3489    0.0000   -0.4113 C   0  0  0  0  0  0  0  0  0  0  0  0
    2.0895   -0.0530    0.7498 C   0  0  0  0  0  0  0  0  0  0  0  0
    3.5625   -0.0155    0.8417 C   0  0  0  0  0  0  0  0  0  0  0  0
    4.2186    0.1234   -0.1715 O   0  0  0  0  0  0  0  0  0  0  0  0
    4.1248   -0.1342    2.0944 N   0  0  0  0  0  0  0  0  0  0  0  0
    3.4420   -0.2811    3.2372 N   0  0  0  0  0  0  0  0  0  0  0  0
    4.0007   -0.3416    4.3784 C   0  0  0  0  0  0  0  0  0  0  0  0
    3.1611   -0.5557    5.5218 C   0  0  0  0  0  0  0  0  0  0  0  0
    3.5090   -0.7105    6.8220 C   0  0  0  0  0  0  0  0  0  0  0  0
    1.4595   -0.7194    5.3059 S   0  0  0  0  0  0  0  0  0  0  0  0
    2.3843   -0.9553    7.6367 C   0  0  0  0  0  0  0  0  0  0  0  0
    1.2707   -0.9880    6.9974 C   0  0  0  0  0  0  0  0  0  0  0  0
    2.4663   -1.1037    9.0947 C   0  0  0  0  0  0  0  0  0  0  0  0
    1.4893   -0.5055    9.8752 C   0  0  0  0  0  0  0  0  0  0  0  0
    3.4296   -1.9084    9.6829 C   0  0  0  0  0  0  0  0  0  0  0  0
    1.6359   -0.6311   11.2478 C   0  0  0  0  0  0  0  0  0  0  0  0
    3.5779   -2.0410   11.0628 C   0  0  0  0  0  0  0  0  0  0  0  0
    2.6417   -1.2821   11.8967 C   0  0  0  0  0  0  0  0  0  0  0  0
    4.7613   -3.1104   11.7403 Cl  0  0  0  0  0  0  0  0  0  0  0  0
    2.8006   -1.4729   13.2364 O   0  0  0  0  0  0  0  0  0  0  0  0
    1.8999   -0.7696   14.0901 C   0  0  0  0  0  0  0  0  0  0  0  0
    2.2807    0.7099   14.2557 C   0  0  0  0  0  0  0  0  0  0  0  0
    3.6432    0.8617   14.9300 C   0  0  0  0  0  0  0  0  0  0  0  0
    4.0397    2.3002   15.1648 C   0  0  0  0  0  0  0  0  0  0  0  0
  2  1  2  0
  3  2  1  0
  4  1  1  0
  5  4  2  0
  5  3  1  0
  6  5  1  0
  7  6  2  0
  8  6  1  0
  9  8  1  0
 10  9  2  0
 11 10  1  0
 12 11  2  0
 13 11  1  0
 14 12  1  0
 15 13  1  0
 15 14  2  0
 16 14  1  0
 17 16  2  0
 18 16  1  0
 19 17  1  0
 20 18  2  0
 21 20  1  0
 21 19  2  0
 22 20  1  0
 23 21  1  0
 24 23  1  0
 25 24  1  0
 26 25  1  0
 27 26  1  0
M  END
>  <SMILES>  (32) 
CCCCOc1ccc(-c2csc(C=NNC(=O)c3ccco3)c2)cc1Cl

>  <scaffold>  (32) 
furan

$$$$

     RDKit          3D

 21 23  0  0  0  0  0  0  0  0999 V2000
   -0.0000   -0.0000   -0.0000 C   0  0  0  0  0  0  0  0  0  0  0  0
   -0.0000   -0.0000    1.3548 C   0  0  0  0  0  0  0  0  0  0  0  0
    1.2637   -0.0000    1.8213 O   0  0  0  0  0  0  0  0  0  0  0  0
    1.3566    0.0000   -0.4137 C   0  0  0  0  0  0  0  0  0  0  0  0
    2.0888   -0.0524    0.7342 C   0  0  0  0  0  0  0  0  0  0  0  0
    3.5597   -0.1370    0.9779 C   0  0  0  0  0  0  0  0  0  0  0  0
    4.2841    0.4539   -0.0886 N   0  0  0  0  0  0  0  0  0  0  0  0
    4.8978   -0.2545   -1.0132 N   0  0  0  0  0  0  0  0  0  0  0  0
    4.4129    1.7723   -0.4074 C   0  0  0  0  0  0  0  0  0  0  0  0
    5.4311    0.5758   -1.8846 C   0  0  0  0  0  0  0  0  0  0  0  0
    5.1678    1.8699   -1.5564 C   0  0  0  0  0  0  0  0  0  0  0  0
    6.3837    0.1344   -3.2261 Cl  0  0  0  0  0  0  0  0  0  0  0  0
    3.8064    2.8446    0.4366 C   0  0  0  0  0  0  0  0  0  0  0  0
    4.5583    3.0573    1.6202 O   0  0  0  0  0  0  0  0  0  0  0  0
    5.7072    3.7708    1.5394 C   0  0  0  0  0  0  0  0  0  0  0  0
    6.1501    4.4855    0.4374 C   0  0  0  0  0  0  0  0  0  0  0  0
    6.4126    3.7728    2.7418 C   0  0  0  0  0  0  0  0  0  0  0  0
    7.3295    5.2266    0.4963 C   0  0  0  0  0  0  0  0  0  0  0  0
    7.5749    4.5113    2.7995 C   0  0  0  0  0  0  0  0  0  0  0  0
    8.1004    5.2831    1.6374 C   0  0  0  0  0  0  0  0  0  0  0  0
    7.7979    6.1440   -0.8849 Cl  0  0  0  0  0  0  0  0  0  0  0  0
  2  1  2  0
  3  2  1  0
  4  1  1  0
  5  4  1  0
  5  3  1  0
  6  5  2  0
  7  6  1  0
  8  7  1  0
  9  7  1  0
 10  8  2  0
 11  9  2  0
 11 10  1  0
 12 10  1  0
 13  9  1  0
 14 13  1  0
 15 14  2  0
 16 15  1  0
 17 15  1  0
 18 16  2  0
 19 17  2  0
 20 19  1  0
 20 18  1  0
 21 18  1  0
M  CHG  2   4  -1  14   1
M  END
>  <SMILES>  (33) 
ClC1=CC(=[O+]Cc2cc(Cl)nn2C=C2[CH-]C=CO2)C=CC1

>  <scaffold>  (33) 
furan

$$$$

     RDKit          3D

 25 27  0  0  0  0  0  0  0  0999 V2000
    0.0000   -0.0000   -0.0000 C   0  0  0  0  0  0  0  0  0  0  0  0
   -0.0000   -0.0000    1.3782 C   0  0  0  0  0  0  0  0  0  0  0  0
    1.3522    0.0000    1.7786 C   0  0  0  0  0  0  0  0  0  0  0  0
    1.2959    0.0000   -0.3951 O   0  0  0  0  0  0  0  0  0  0  0  0
    2.1278    0.0503    0.6435 C   0  0  0  0  0  0  0  0  0  0  0  0
   -1.1328   -0.0000   -0.9070 C   0  0  0  0  0  0  0  0  0  0  0  0
   -2.4739   -0.0000   -0.4980 C   0  0  0  0  0  0  0  0  0  0  0  0
   -0.8551   -0.0552   -2.2720 C   0  0  0  0  0  0  0  0  0  0  0  0
   -3.5114   -0.0494   -1.3920 C   0  0  0  0  0  0  0  0  0  0  0  0
   -1.8881   -0.1065   -3.1591 C   0  0  0  0  0  0  0  0  0  0  0  0
   -3.2613   -0.1023   -2.7624 C   0  0  0  0  0  0  0  0  0  0  0  0
   -4.3061   -0.1012   -3.6004 F   0  0  0  0  0  0  0  0  0  0  0  0
   -1.5396   -0.2176   -4.5981 C   0  0  0  0  0  0  0  0  0  0  0  0
   -2.2941   -0.7292   -5.3910 O   0  0  0  0  0  0  0  0  0  0  0  0
   -0.3817    0.3346   -4.9556 O   0  0  0  0  0  0  0  0  0  0  0  0
    0.0038    0.4374   -6.3081 C   0  0  0  0  0  0  0  0  0  0  0  0
    1.1495   -0.1824   -6.7819 C   0  0  0  0  0  0  0  0  0  0  0  0
   -0.8074    1.1673   -7.1629 C   0  0  0  0  0  0  0  0  0  0  0  0
    1.5946   -0.0689   -8.0898 C   0  0  0  0  0  0  0  0  0  0  0  0
   -0.3650    1.2811   -8.4632 C   0  0  0  0  0  0  0  0  0  0  0  0
    0.7920    0.6699   -8.9578 C   0  0  0  0  0  0  0  0  0  0  0  0
    1.0924    0.8052  -10.2560 O   0  0  0  0  0  0  0  0  0  0  0  0
    2.2807    0.3537  -10.8849 C   0  0  0  0  0  0  0  0  0  0  0  0
    3.4454    1.2587  -10.5211 C   0  0  0  0  0  0  0  0  0  0  0  0
    4.7262    0.8509  -11.2103 C   0  0  0  0  0  0  0  0  0  0  0  0
  2  1  2  0
  3  2  1  0
  4  1  1  0
  5  4  1  0
  5  3  2  0
  6  1  1  0
  7  6  2  0
  8  6  1  0
  9  7  1  0
 10  8  2  0
 11 10  1  0
 11  9  2  0
 12 11  1  0
 13 10  1  0
 14 13  2  0
 15 13  1  0
 16 15  1  0
 17 16  2  0
 18 16  1  0
 19 17  1  0
 20 18  2  0
 21 20  1  0
 21 19  2  0
 22 21  1  0
 23 22  1  0
 24 23  1  0
 25 24  1  0
M  END
>  <SMILES>  (34) 
CCCOc1ccc(OC(=O)c2cc(-c3ccco3)ccc2F)cc1

>  <scaffold>  (34) 
furan

$$$$

     RDKit          3D

 35 37  0  0  0  0  0  0  0  0999 V2000
   -0.0000    0.0000    0.0000 C   0  0  0  0  0  0  0  0  0  0  0  0
    0.0000    0.0000    1.3625 C   0  0  0  0  0  0  0  0  0  0  0  0
    1.3599   -0.0000    1.7652 C   0  0  0  0  0  0  0  0  0  0  0  0
    1.2559   -0.0000   -0.5080 O   0  0  0  0  0  0  0  0  0  0  0  0
    2.0974    0.0509    0.5426 C   0  0  0  0  0  0  0  0  0  0  0  0
   -1.1053    0.0543   -0.9898 C   0  0  0  0  0  0  0  0  0  0  0  0
   -1.3027    1.3850   -1.5340 N   0  0  0  0  0  0  0  0  0  0  0  0
   -2.1665    2.4420   -0.6144 S   0  0  0  0  0  6  0  0  0  0  0  0
   -2.2973    3.6706   -1.3435 O   0  0  0  0  0  0  0  0  0  0  0  0
   -3.3862    1.7652   -0.2144 O   0  0  0  0  0  0  0  0  0  0  0  0
   -1.1778    2.6980    0.8351 C   0  0  0  0  0  0  0  0  0  0  0  0
    0.1009    3.2029    0.7362 C   0  0  0  0  0  0  0  0  0  0  0  0
   -1.7220    2.4287    2.0724 C   0  0  0  0  0  0  0  0  0  0  0  0
    0.8534    3.3393    1.8923 C   0  0  0  0  0  0  0  0  0  0  0  0
   -0.9759    2.5655    3.2231 C   0  0  0  0  0  0  0  0  0  0  0  0
    0.3230    3.0342    3.1361 C   0  0  0  0  0  0  0  0  0  0  0  0
   -1.3838    2.2801    4.4914 O   0  0  0  0  0  0  0  0  0  0  0  0
   -2.7016    1.7975    4.6291 C   0  0  0  0  0  0  0  0  0  0  0  0
    1.0158    3.2007    4.3158 N   0  0  0  0  0  0  0  0  0  0  0  0
    2.4208    3.5290    4.3255 C   0  0  0  0  0  0  0  0  0  0  0  0
    3.2798    2.3100    3.9931 C   0  0  0  0  0  0  0  0  0  0  0  0
    4.7753    2.6178    3.9368 C   0  0  0  0  0  0  0  0  0  0  0  0
    5.5783    1.3630    3.7464 C   0  0  0  0  0  0  0  0  0  0  0  0
    5.8712    0.8569    2.4896 C   0  0  0  0  0  0  0  0  0  0  0  0
    5.9502    0.6272    4.8707 C   0  0  0  0  0  0  0  0  0  0  0  0
    6.5697   -0.3247    2.3656 C   0  0  0  0  0  0  0  0  0  0  0  0
    6.6527   -0.5699    4.7406 C   0  0  0  0  0  0  0  0  0  0  0  0
    7.0014   -1.0446    3.4488 C   0  0  0  0  0  0  0  0  0  0  0  0
    7.0210   -1.3952    5.7499 O   0  0  0  0  0  0  0  0  0  0  0  0
    6.7369   -1.0191    7.0875 C   0  0  0  0  0  0  0  0  0  0  0  0
    7.7199    0.0545    7.6065 C   0  0  0  0  0  0  0  0  0  0  0  0
    7.3963    0.5631    8.8993 N   0  0  0  0  0  0  0  0  0  0  0  0
    6.2375    1.4205    8.9625 C   0  0  0  0  0  0  0  0  0  0  0  0
    6.0398    1.9397   10.3858 C   0  0  0  0  0  0  0  0  0  0  0  0
    4.7739    2.7949   10.4104 C   0  0  0  0  0  0  0  0  0  0  0  0
  2  1  2  0
  3  2  1  0
  4  1  1  0
  5  4  2  0
  5  3  1  0
  6  1  1  0
  7  6  1  0
  8  7  1  0
  9  8  2  0
 10  8  2  0
 11  8  1  0
 12 11  2  0
 13 11  1  0
 14 12  1  0
 15 13  2  0
 16 15  1  0
 16 14  2  0
 17 15  1  0
 18 17  1  0
 19 16  1  0
 20 19  1  0
 21 20  1  0
 22 21  1  0
 23 22  1  0
 24 23  2  0
 25 23  1  0
 26 24  1  0
 27 25  2  0
 28 27  1  0
 28 26  2  0
 29 27  1  0
 30 29  1  0
 31 30  1  0
 32 31  1  0
 33 32  1  0
 34 33  1  0
 35 34  1  0
M  CHG  2   4   1   5  -1
M  END
>  <SMILES>  (35) 
CCCNCCOc1cccc(CCCNc2ccc(S(=O)(=O)NCC3=CC[C-]=[O+]3)cc2OC)c1

>  <scaffold>  (35) 
furan

$$$$

     RDKit          3D

 21 23  0  0  0  0  0  0  0  0999 V2000
   -0.0000   -0.0000    0.0000 C   0  0  0  0  0  0  0  0  0  0  0  0
    0.0000    0.0000    1.3625 C   0  0  0  0  0  0  0  0  0  0  0  0
    1.2565   -0.0000    1.8264 O   0  0  0  0  0  0  0  0  0  0  0  0
    1.3566   -0.0000   -0.4137 C   0  0  0  0  0  0  0  0  0  0  0  0
    2.0888   -0.0524    0.7342 C   0  0  0  0  0  0  0  0  0  0  0  0
    3.5890   -0.0172    0.9068 C   0  0  0  0  0  0  0  0  0  0  0  0
    4.0873    1.2871    0.5775 N   0  0  0  0  0  0  0  0  0  0  0  0
    4.2764    1.6775   -0.6655 N   0  0  0  0  0  0  0  0  0  0  0  0
    4.2928    2.2286    1.4634 N   0  0  0  0  0  0  0  0  0  0  0  0
    4.6838    2.9346   -0.5010 C   0  0  0  0  0  0  0  0  0  0  0  0
    4.6829    3.2483    0.8105 N   0  0  0  0  0  0  0  0  0  0  0  0
    5.0988    3.8474   -1.5845 C   0  0  0  0  0  0  0  0  0  0  0  0
    5.2071    3.4787   -2.7446 O   0  0  0  0  0  0  0  0  0  0  0  0
    5.3128    5.1001   -1.1378 N   0  0  0  0  0  0  0  0  0  0  0  0
    5.8831    6.1260   -1.9911 C   0  0  0  0  0  0  0  0  0  0  0  0
    7.3659    6.1953   -1.7634 C   0  0  0  0  0  0  0  0  0  0  0  0
    7.9651    7.0837   -0.8841 C   0  0  0  0  0  0  0  0  0  0  0  0
    8.1647    5.2665   -2.4456 C   0  0  0  0  0  0  0  0  0  0  0  0
    9.3347    7.0770   -0.6705 C   0  0  0  0  0  0  0  0  0  0  0  0
    9.5338    5.2600   -2.2287 C   0  0  0  0  0  0  0  0  0  0  0  0
   10.1660    6.1747   -1.3326 C   0  0  0  0  0  0  0  0  0  0  0  0
  2  1  2  0
  3  2  1  0
  4  1  1  0
  5  4  2  0
  5  3  1  0
  6  5  1  0
  7  6  1  0
  8  7  1  0
  9  7  1  0
 10  8  2  0
 11 10  1  0
 11  9  2  0
 12 10  1  0
 13 12  2  0
 14 12  1  0
 15 14  1  0
 16 15  1  0
 17 16  2  0
 18 16  1  0
 19 17  1  0
 20 18  2  0
 21 20  1  0
 21 19  2  0
M  END
>  <SMILES>  (36) 
O=C(NCc1ccccc1)c1nnn(Cc2ccco2)n1

>  <scaffold>  (36) 
furan

$$$$

     RDKit          3D

 33 34  0  0  0  0  0  0  0  0999 V2000
   -0.0000    0.0000   -0.0000 C   0  0  0  0  0  0  0  0  0  0  0  0
    0.0000   -0.0000    1.3782 C   0  0  0  0  0  0  0  0  0  0  0  0
    1.3444    0.0000    1.7763 C   0  0  0  0  0  0  0  0  0  0  0  0
    1.2757   -0.0627   -0.4516 O   0  0  0  0  0  0  0  0  0  0  0  0
    2.1091   -0.0532    0.5871 C   0  0  0  0  0  0  0  0  0  0  0  0
   -1.1393    0.0000   -0.9122 C   0  0  0  0  0  0  0  0  0  0  0  0
   -2.2818    0.0000   -0.5638 O   0  0  0  0  0  0  0  0  0  0  0  0
    3.4463   -0.0570    0.3254 O   0  0  0  0  0  0  0  0  0  0  0  0
    4.3774   -0.6645    1.0861 C   0  0  0  0  0  0  0  0  0  0  0  0
    4.0540   -1.3051    2.0495 O   0  0  0  0  0  0  0  0  0  0  0  0
   -0.7375   -0.0529   -2.1887 O   0  0  0  0  0  0  0  0  0  0  0  0
    5.7554   -0.4586    0.5984 C   0  0  0  0  0  0  0  0  0  0  0  0
    6.0104    0.3454   -0.5116 C   0  0  0  0  0  0  0  0  0  0  0  0
    6.7982   -1.0798    1.2679 C   0  0  0  0  0  0  0  0  0  0  0  0
    7.3171    0.5476   -0.9003 C   0  0  0  0  0  0  0  0  0  0  0  0
    8.1049   -0.8774    0.8792 C   0  0  0  0  0  0  0  0  0  0  0  0
    8.3704   -0.0830   -0.2398 C   0  0  0  0  0  0  0  0  0  0  0  0
    9.6193    0.2361   -0.6814 O   0  0  0  0  0  0  0  0  0  0  0  0
   10.7037   -0.4682   -0.1393 C   0  0  0  0  0  0  0  0  0  0  0  0
   10.6680   -1.9467   -0.5231 C   0  0  0  0  0  0  0  0  0  0  0  0
    9.8226   -2.4724   -1.2077 O   0  0  0  0  0  0  0  0  0  0  0  0
   11.6434   -2.6566    0.0039 O   0  0  0  0  0  0  0  0  0  0  0  0
   11.8171   -4.0599   -0.2831 C   0  0  1  0  0  0  0  0  0  0  0  0
   12.5025   -4.2410   -1.6365 C   0  0  0  0  0  0  0  0  0  0  0  0
   12.6369   -4.8049    0.7692 C   0  0  0  0  0  0  0  0  0  0  0  0
   11.9338   -4.7766    2.1254 C   0  0  0  0  0  0  0  0  0  0  0  0
   12.7646   -5.5786    3.1258 C   0  0  0  0  0  0  0  0  0  0  0  0
   12.0708   -5.6272    4.4960 C   0  0  0  0  0  0  0  0  0  0  0  0
   12.9122   -6.4833    5.4412 C   0  0  0  0  0  0  0  0  0  0  0  0
   12.2358   -6.6084    6.8055 C   0  0  0  0  0  0  0  0  0  0  0  0
   13.0824   -7.5103    7.6875 C   0  0  0  0  0  0  0  0  0  0  0  0
   12.4195   -7.7120    9.0492 C   0  0  0  0  0  0  0  0  0  0  0  0
   13.3336   -8.5784    9.9141 C   0  0  0  0  0  0  0  0  0  0  0  0
  2  1  2  0
  3  2  1  0
  4  1  1  0
  5  4  1  0
  5  3  2  0
  6  1  1  0
  7  6  2  0
  8  5  1  0
  9  8  1  0
 10  9  2  0
 11  6  1  0
 12  9  1  0
 13 12  2  0
 14 12  1  0
 15 13  1  0
 16 14  2  0
 17 16  1  0
 17 15  2  0
 18 17  1  0
 19 18  1  0
 20 19  1  0
 21 20  2  0
 22 20  1  0
 23 22  1  0
 23 24  1  6
 25 23  1  0
 26 25  1  0
 27 26  1  0
 28 27  1  0
 29 28  1  0
 30 29  1  0
 31 30  1  0
 32 31  1  0
 33 32  1  0
M  END
>  <SMILES>  (37) 
CCCCCCCCCC(C)OC(=O)COc1ccc(C(=O)Oc2ccc(C(=O)O)o2)cc1

>  <scaffold>  (37) 
furan

$$$$

     RDKit          3D

 24 25  0  0  0  0  0  0  0  0999 V2000
    0.0000    0.0000   -0.0000 C   0  0  0  0  0  0  0  0  0  0  0  0
    0.0000    0.0000    1.3625 C   0  0  0  0  0  0  0  0  0  0  0  0
    1.2709   -0.0000    1.8317 O   0  0  0  0  0  0  0  0  0  0  0  0
    1.3566    0.0000   -0.4137 C   0  0  0  0  0  0  0  0  0  0  0  0
    2.0888   -0.0524    0.7342 C   0  0  0  0  0  0  0  0  0  0  0  0
    3.4722   -0.1291    0.8893 N   0  0  0  0  0  0  0  0  0  0  0  0
   -1.1117   -0.0546    2.3581 C   0  0  0  0  0  0  0  0  0  0  0  0
   -2.2800   -0.6072    1.8353 O   0  0  0  0  0  0  0  0  0  0  0  0
    4.0641   -0.3218    2.1014 C   0  0  0  0  0  0  0  0  0  0  0  0
    3.4909   -0.3361    3.1570 O   0  0  0  0  0  0  0  0  0  0  0  0
    5.3945   -0.5074    1.9251 O   0  0  0  0  0  0  0  0  0  0  0  0
    6.2375   -0.6717    3.0130 C   0  0  0  0  0  0  0  0  0  0  0  0
    6.0752   -0.0677    4.2412 C   0  0  0  0  0  0  0  0  0  0  0  0
    7.3297   -1.5178    2.7740 C   0  0  0  0  0  0  0  0  0  0  0  0
    7.0183   -0.2701    5.2367 C   0  0  0  0  0  0  0  0  0  0  0  0
    8.2468   -1.7127    3.7413 C   0  0  0  0  0  0  0  0  0  0  0  0
    8.1501   -1.0286    4.9816 C   0  0  0  0  0  0  0  0  0  0  0  0
    9.5115   -1.2866    6.2805 Br  0  0  0  0  0  0  0  0  0  0  0  0
    9.3749   -2.5048    3.5331 N   0  0  0  0  0  0  0  0  0  0  0  0
    9.8350   -3.0231    2.3600 C   0  0  0  0  0  0  0  0  0  0  0  0
    9.3082   -2.8649    1.2765 O   0  0  0  0  0  0  0  0  0  0  0  0
   11.0749   -3.8831    2.5996 C   0  0  0  0  0  0  0  0  0  0  0  0
   12.2469   -3.0667    3.1422 C   0  0  0  0  0  0  0  0  0  0  0  0
   10.7688   -5.1126    3.4689 C   0  0  0  0  0  0  0  0  0  0  0  0
  2  1  2  0
  3  2  1  0
  4  1  1  0
  5  4  2  0
  5  3  1  0
  6  5  1  0
  7  2  1  0
  8  7  1  0
  9  6  1  0
 10  9  2  0
 11  9  1  0
 12 11  1  0
 13 12  2  0
 14 12  1  0
 15 13  1  0
 16 14  2  0
 17 16  1  0
 17 15  2  0
 18 17  1  0
 19 16  1  0
 20 19  1  0
 21 20  2  0
 22 20  1  0
 23 22  1  0
 24 22  1  0
M  END
>  <SMILES>  (38) 
CC(C)C(=O)Nc1cc(OC(=O)Nc2ccc(CO)o2)ccc1Br

>  <scaffold>  (38) 
furan

$$$$

     RDKit          3D

 28 31  0  0  0  0  0  0  0  0999 V2000
    0.0000   -0.0000   -0.0000 C   0  0  0  0  0  0  0  0  0  0  0  0
    0.0000   -0.0000    1.3625 C   0  0  0  0  0  0  0  0  0  0  0  0
    1.2487    0.0000    1.8470 O   0  0  0  0  0  0  0  0  0  0  0  0
    1.3489    0.0000   -0.4113 C   0  0  0  0  0  0  0  0  0  0  0  0
    2.0895    0.0530    0.7498 C   0  0  0  0  0  0  0  0  0  0  0  0
    3.5130    0.1319    0.9094 C   0  0  0  0  0  0  0  0  0  0  0  0
    4.3192    0.1035   -0.1215 N   0  0  0  0  0  0  0  0  0  0  0  0
    4.0840    0.2328    2.1949 C   0  0  0  0  0  0  0  0  0  0  0  0
    5.6048    0.2184   -0.0270 N   0  0  0  0  0  0  0  0  0  0  0  0
    5.4297    0.3535    2.2942 C   0  0  0  0  0  0  0  0  0  0  0  0
    6.1438    0.3711    1.1478 C   0  0  0  0  0  0  0  0  0  0  0  0
    7.4571    0.5409    1.2882 O   0  0  0  0  0  0  0  0  0  0  0  0
    8.3958    0.5799    0.2798 C   0  0  0  0  0  0  0  0  0  0  0  0
    9.7171    0.7159    0.7032 C   0  0  0  0  0  0  0  0  0  0  0  0
    8.1480    0.4490   -1.0777 C   0  0  0  0  0  0  0  0  0  0  0  0
   10.7816    0.8272   -0.1526 C   0  0  0  0  0  0  0  0  0  0  0  0
    9.2038    0.5681   -1.9307 C   0  0  0  0  0  0  0  0  0  0  0  0
   10.5488    0.8051   -1.5351 C   0  0  0  0  0  0  0  0  0  0  0  0
   11.6540    0.8705   -2.3559 N   0  0  0  0  0  0  0  0  0  0  0  0
   11.6491    1.0204   -3.7419 C   0  0  0  0  0  0  0  0  0  0  0  0
   10.7835    1.8189   -4.4580 C   0  0  0  0  0  0  0  0  0  0  0  0
   12.6826    0.3230   -4.4007 C   0  0  0  0  0  0  0  0  0  0  0  0
   10.8501    1.9769   -5.8577 C   0  0  0  0  0  0  0  0  0  0  0  0
   12.7476    0.4823   -5.7761 C   0  0  0  0  0  0  0  0  0  0  0  0
   11.8869    1.3235   -6.5055 C   0  0  0  0  0  0  0  0  0  0  0  0
    9.9055    2.7527   -6.4596 O   0  0  0  0  0  0  0  0  0  0  0  0
    9.8320    2.9435   -7.8549 C   0  0  0  0  0  0  0  0  0  0  0  0
    9.2566    1.7076   -8.5449 C   0  0  0  0  0  0  0  0  0  0  0  0
  2  1  2  0
  3  2  1  0
  4  1  1  0
  5  4  2  0
  5  3  1  0
  6  5  1  0
  7  6  2  0
  8  6  1  0
  9  7  1  0
 10  8  2  0
 11 10  1  0
 11  9  2  0
 12 11  1  0
 13 12  1  0
 14 13  2  0
 15 13  1  0
 16 14  1  0
 17 15  2  0
 18 17  1  0
 18 16  2  0
 19 18  1  0
 20 19  1  0
 21 20  2  0
 22 20  1  0
 23 21  1  0
 24 22  2  0
 25 23  2  0
 25 24  1  0
 26 23  1  0
 27 26  1  0
 28 27  1  0
M  END
>  <SMILES>  (39) 
CCOc1cccc(Nc2ccc(Oc3ccc(-c4ccco4)nn3)cc2)c1

>  <scaffold>  (39) 
furan

$$$$

     RDKit          3D

 28 29  0  0  0  0  0  0  0  0999 V2000
   -0.0000   -0.0000   -0.0000 C   0  0  0  0  0  0  0  0  0  0  0  0
   -0.0000    0.0000    1.3625 C   0  0  0  0  0  0  0  0  0  0  0  0
    1.2487   -0.0000    1.8470 O   0  0  0  0  0  0  0  0  0  0  0  0
    1.3566    0.0000   -0.4137 C   0  0  0  0  0  0  0  0  0  0  0  0
    2.0888   -0.0524    0.7342 C   0  0  0  0  0  0  0  0  0  0  0  0
    3.5621   -0.1340    0.8994 C   0  0  0  0  0  0  0  0  0  0  0  0
    4.3498   -0.1665   -0.0252 O   0  0  0  0  0  0  0  0  0  0  0  0
    3.9151   -0.2220    2.2206 N   0  0  0  0  0  0  0  0  0  0  0  0
    5.1804   -0.4652    2.6639 N   0  0  0  0  0  0  0  0  0  0  0  0
    6.2244    0.1126    2.2022 C   0  0  0  0  0  0  0  0  0  0  0  0
    7.5785   -0.1462    2.5991 C   0  0  0  0  0  0  0  0  0  0  0  0
    7.9567   -1.2032    3.4122 C   0  0  0  0  0  0  0  0  0  0  0  0
    8.6113    0.6692    2.1148 C   0  0  0  0  0  0  0  0  0  0  0  0
    9.2926   -1.4432    3.7306 C   0  0  0  0  0  0  0  0  0  0  0  0
    9.9165    0.4317    2.4255 C   0  0  0  0  0  0  0  0  0  0  0  0
   10.2940   -0.6308    3.2439 C   0  0  0  0  0  0  0  0  0  0  0  0
   10.9444    1.3347    1.9419 N   0  0  0  0  0  0  0  0  0  0  0  0
   10.9067    1.6085    0.7729 O   0  0  0  0  0  0  0  0  0  0  0  0
   11.6096   -0.7912    3.4370 O   0  0  0  0  0  0  0  0  0  0  0  0
   11.6952    1.8586    2.7409 O   0  0  0  0  0  0  0  0  0  0  0  0
   12.1239   -1.8696    4.2012 C   0  0  0  0  0  0  0  0  0  0  0  0
   11.9333   -1.6309    5.6982 C   0  0  0  0  0  0  0  0  0  0  0  0
   12.5509   -2.7917    6.4763 C   0  0  0  0  0  0  0  0  0  0  0  0
   12.4347   -2.5738    7.9841 C   0  0  0  0  0  0  0  0  0  0  0  0
   13.0127   -3.7768    8.7096 C   0  0  2  0  0  0  0  0  0  0  0  0
   12.3156   -4.9150    8.4771 F   0  0  0  0  0  0  0  0  0  0  0  0
   13.0523   -3.5490   10.2287 C   0  0  0  0  0  0  0  0  0  0  0  0
   11.6435   -3.3844   10.8196 C   0  0  0  0  0  0  0  0  0  0  0  0
  2  1  2  0
  3  2  1  0
  4  1  1  0
  5  4  2  0
  5  3  1  0
  6  5  1  0
  7  6  2  0
  8  6  1  0
  9  8  1  0
 10  9  2  0
 11 10  1  0
 12 11  2  0
 13 11  1  0
 14 12  1  0
 15 13  2  0
 16 15  1  0
 16 14  2  0
 17 15  1  0
 18 17  2  0
 19 16  1  0
 20 17  1  0
 21 19  1  0
 22 21  1  0
 23 22  1  0
 24 23  1  0
 25 24  1  0
 25 26  1  1
 27 25  1  0
 28 27  1  0
M  CHG  2  17   1  20  -1
M  END
>  <SMILES>  (40) 
CCC(F)CCCCOc1ccc(C=NNC(=O)c2ccco2)cc1[N+](=O)[O-]

>  <scaffold>  (40) 
furan

$$$$

     RDKit          3D

 29 31  0  0  0  0  0  0  0  0999 V2000
   -0.0000    0.0000   -0.0000 C   0  0  0  0  0  0  0  0  0  0  0  0
   -0.0000    0.0000    1.3782 C   0  0  0  0  0  0  0  0  0  0  0  0
    1.3522   -0.0000    1.7786 C   0  0  0  0  0  0  0  0  0  0  0  0
    1.2559   -0.0000   -0.5080 O   0  0  0  0  0  0  0  0  0  0  0  0
    2.0926   -0.0506    0.5366 C   0  0  0  0  0  0  0  0  0  0  0  0
   -1.1328    0.0000   -0.9070 C   0  0  0  0  0  0  0  0  0  0  0  0
   -2.3085    0.0000   -0.5485 O   0  0  0  0  0  0  0  0  0  0  0  0
    3.5688   -0.0030    0.2644 C   0  0  0  0  0  0  0  0  0  0  0  0
    4.3557   -0.5442    1.2909 O   0  0  0  0  0  0  0  0  0  0  0  0
   -0.7922    0.0539   -2.2251 N   0  0  0  0  0  0  0  0  0  0  0  0
   -1.8490    0.1064   -3.1329 N   0  0  0  0  0  0  0  0  0  0  0  0
   -1.6979    0.8058   -4.2832 C   0  0  0  0  0  0  0  0  0  0  0  0
   -0.4857    1.1868   -4.6557 N   0  0  0  0  0  0  0  0  0  0  0  0
   -2.7898    1.0592   -5.1255 C   0  0  0  0  0  0  0  0  0  0  0  0
   -0.3811    1.8195   -5.7969 C   0  0  0  0  0  0  0  0  0  0  0  0
   -2.6771    1.7150   -6.3145 C   0  0  0  0  0  0  0  0  0  0  0  0
   -1.4383    2.1257   -6.6525 C   0  0  0  0  0  0  0  0  0  0  0  0
   -1.2004    2.7336   -7.8221 O   0  0  0  0  0  0  0  0  0  0  0  0
   -2.2362    3.2442   -8.6173 C   0  0  0  0  0  0  0  0  0  0  0  0
   -3.1468    4.1572   -8.1306 C   0  0  0  0  0  0  0  0  0  0  0  0
   -2.2701    2.9338   -9.9678 C   0  0  0  0  0  0  0  0  0  0  0  0
   -4.1295    4.6740   -8.9737 C   0  0  0  0  0  0  0  0  0  0  0  0
   -3.2403    3.4523  -10.7981 C   0  0  0  0  0  0  0  0  0  0  0  0
   -4.1553    4.3156  -10.3125 C   0  0  0  0  0  0  0  0  0  0  0  0
   -5.1570    4.8045  -11.0826 F   0  0  0  0  0  0  0  0  0  0  0  0
   -3.3410    3.1409  -12.1048 O   0  0  0  0  0  0  0  0  0  0  0  0
   -2.2838    2.5819  -12.8213 C   0  0  0  0  0  0  0  0  0  0  0  0
   -1.1268    3.5644  -12.8836 C   0  0  0  0  0  0  0  0  0  0  0  0
   -1.1182    4.6995  -12.4904 O   0  0  0  0  0  0  0  0  0  0  0  0
  2  1  2  0
  3  2  1  0
  4  1  1  0
  5  4  1  0
  5  3  2  0
  6  1  1  0
  7  6  2  0
  8  5  1  0
  9  8  1  0
 10  6  1  0
 11 10  1  0
 12 11  1  0
 13 12  2  0
 14 12  1  0
 15 13  1  0
 16 14  2  0
 17 16  1  0
 17 15  2  0
 18 17  1  0
 19 18  1  0
 20 19  2  0
 21 19  1  0
 22 20  1  0
 23 21  2  0
 24 23  1  0
 24 22  2  0
 25 24  1  0
 26 23  1  0
 27 26  1  0
 28 27  1  0
 29 28  2  0
M  END
>  <SMILES>  (41) 
O=CCOc1cc(Oc2ccc(NNC(=O)c3ccc(CO)o3)nc2)ccc1F

>  <scaffold>  (41) 
furan

$$$$

     RDKit          3D

 34 36  0  0  0  0  0  0  0  0999 V2000
    0.0000   -0.0000    0.0000 C   0  0  0  0  0  0  0  0  0  0  0  0
   -0.0000   -0.0000    1.3548 C   0  0  0  0  0  0  0  0  0  0  0  0
    1.2637   -0.0000    1.8213 O   0  0  0  0  0  0  0  0  0  0  0  0
    1.3566    0.0000   -0.4137 C   0  0  0  0  0  0  0  0  0  0  0  0
    2.0888    0.0524    0.7342 C   0  0  0  0  0  0  0  0  0  0  0  0
    3.4734    0.0199    0.8935 N   0  0  0  0  0  0  0  0  0  0  0  0
    4.2967   -0.6934    0.0620 C   0  0  0  0  0  0  0  0  0  0  0  0
    5.5715   -0.3200   -0.0318 N   0  0  0  0  0  0  0  0  0  0  0  0
    3.8264   -1.7958   -0.6501 C   0  0  0  0  0  0  0  0  0  0  0  0
    6.4185   -1.0129   -0.7906 C   0  0  0  0  0  0  0  0  0  0  0  0
    4.7674   -2.4664   -1.4157 C   0  0  0  0  0  0  0  0  0  0  0  0
    6.0478   -2.0837   -1.4756 N   0  0  0  0  0  0  0  0  0  0  0  0
    3.9359    0.7367    2.0470 C   0  0  0  0  0  0  0  0  0  0  0  0
    8.0879   -0.5132   -0.8251 S   0  0  0  0  0  0  0  0  0  0  0  0
    4.3504   -3.5030   -2.1542 O   0  0  0  0  0  0  0  0  0  0  0  0
    5.3576   -4.1881   -2.8805 C   0  0  0  0  0  0  0  0  0  0  0  0
    8.7597   -1.6844   -2.0057 C   0  0  0  0  0  0  0  0  0  0  0  0
    8.7520   -3.0464   -1.7949 C   0  0  0  0  0  0  0  0  0  0  0  0
    9.3750   -1.2149   -3.1461 C   0  0  0  0  0  0  0  0  0  0  0  0
    9.3244   -3.9045   -2.7090 C   0  0  0  0  0  0  0  0  0  0  0  0
    9.9558   -2.0850   -4.0675 C   0  0  0  0  0  0  0  0  0  0  0  0
    9.9704   -3.3729   -3.8341 C   0  0  0  0  0  0  0  0  0  0  0  0
   10.5443   -4.3209   -4.6403 O   0  0  0  0  0  0  0  0  0  0  0  0
   11.5290   -3.9383   -5.5499 C   0  0  2  0  0  0  0  0  0  0  0  0
   12.4983   -3.1769   -4.9876 F   0  0  0  0  0  0  0  0  0  0  0  0
   11.0230   -3.2565   -6.8202 C   0  0  0  0  0  0  0  0  0  0  0  0
   11.7699   -2.6427   -7.5449 O   0  0  0  0  0  0  0  0  0  0  0  0
    9.7551   -3.5880   -7.0566 O   0  0  0  0  0  0  0  0  0  0  0  0
    9.1823   -3.0566   -8.2499 C   0  0  0  0  0  0  0  0  0  0  0  0
    9.6608   -3.7336   -9.5125 C   0  0  0  0  0  0  0  0  0  0  0  0
    9.0604   -3.0928  -10.7629 C   0  0  0  0  0  0  0  0  0  0  0  0
    9.4709   -3.7769  -12.0659 C   0  0  0  0  0  0  0  0  0  0  0  0
    8.8892   -3.0663  -13.2870 C   0  0  0  0  0  0  0  0  0  0  0  0
    9.3725   -3.7549  -14.5624 C   0  0  0  0  0  0  0  0  0  0  0  0
  2  1  2  0
  3  2  1  0
  4  1  1  0
  5  4  2  0
  5  3  1  0
  6  5  1  0
  7  6  1  0
  8  7  2  0
  9  7  1  0
 10  8  1  0
 11  9  2  0
 12 11  1  0
 12 10  2  0
 13  6  1  0
 14 10  1  0
 15 11  1  0
 16 15  1  0
 17 14  1  0
 18 17  2  0
 19 17  1  0
 20 18  1  0
 21 19  2  0
 22 21  1  0
 22 20  2  0
 23 22  1  0
 24 23  1  0
 24 25  1  1
 26 24  1  0
 27 26  2  0
 28 26  1  0
 29 28  1  0
 30 29  1  0
 31 30  1  0
 32 31  1  0
 33 32  1  0
 34 33  1  0
M  END
>  <SMILES>  (42) 
CCCCCCOC(=O)C(F)Oc1ccc(Sc2nc(OC)cc(N(C)c3ccco3)n2)cc1

>  <scaffold>  (42) 
furan

$$$$

     RDKit          3D

 19 20  0  0  0  0  0  0  0  0999 V2000
   -0.0000   -0.0000   -0.0000 C   0  0  0  0  0  0  0  0  0  0  0  0
   -0.0000   -0.0000    1.3625 C   0  0  0  0  0  0  0  0  0  0  0  0
    1.3599    0.0000    1.7652 C   0  0  0  0  0  0  0  0  0  0  0  0
    1.2559   -0.0000   -0.5080 O   0  0  0  0  0  0  0  0  0  0  0  0
    2.0926   -0.0506    0.5366 C   0  0  0  0  0  0  0  0  0  0  0  0
   -1.1458   -0.0000   -0.9174 C   0  0  0  0  0  0  0  0  0  0  0  0
   -2.3081   -0.0000   -0.5630 O   0  0  0  0  0  0  0  0  0  0  0  0
   -0.8033    0.0543   -2.2432 N   0  0  0  0  0  0  0  0  0  0  0  0
   -1.7199    0.1160   -3.2283 N   0  0  0  0  0  0  0  0  0  0  0  0
   -1.3550    0.2114   -4.4508 C   0  0  0  0  0  0  0  0  0  0  0  0
   -2.2914    0.2286   -5.5375 C   0  0  0  0  0  0  0  0  0  0  0  0
   -1.8438    0.3859   -6.8655 C   0  0  0  0  0  0  0  0  0  0  0  0
   -3.6673    0.1390   -5.2826 C   0  0  0  0  0  0  0  0  0  0  0  0
   -2.6992    0.4570   -7.9237 C   0  0  0  0  0  0  0  0  0  0  0  0
   -4.5308    0.2091   -6.3545 C   0  0  0  0  0  0  0  0  0  0  0  0
   -4.0601    0.3092   -7.6597 C   0  0  0  0  0  0  0  0  0  0  0  0
   -5.1093    0.4713   -9.0420 Cl  0  0  0  0  0  0  0  0  0  0  0  0
   -0.5151    0.5158   -7.0451 O   0  0  0  0  0  0  0  0  0  0  0  0
   -0.0186    0.6245   -8.3518 C   0  0  0  0  0  0  0  0  0  0  0  0
  2  1  2  0
  3  2  1  0
  4  1  1  0
  5  4  1  0
  5  3  2  0
  6  1  1  0
  7  6  2  0
  8  6  1  0
  9  8  1  0
 10  9  2  0
 11 10  1  0
 12 11  2  0
 13 11  1  0
 14 12  1  0
 15 13  2  0
 16 15  1  0
 16 14  2  0
 17 16  1  0
 18 12  1  0
 19 18  1  0
M  END
>  <SMILES>  (43) 
COc1cc(Cl)ccc1C=NNC(=O)c1ccco1

>  <scaffold>  (43) 
furan

$$$$

     RDKit          3D

 20 21  0  0  0  0  0  0  0  0999 V2000
   -0.0000    0.0000    0.0000 C   0  0  0  0  0  0  0  0  0  0  0  0
   -0.0000    0.0000    1.3625 C   0  0  0  0  0  0  0  0  0  0  0  0
    1.2637    0.0000    1.8290 O   0  0  0  0  0  0  0  0  0  0  0  0
    1.3566   -0.0000   -0.4137 C   0  0  0  0  0  0  0  0  0  0  0  0
    2.0888   -0.0524    0.7342 C   0  0  0  0  0  0  0  0  0  0  0  0
   -1.1590    0.0000    2.2905 C   0  0  0  0  0  0  0  0  0  0  0  0
    3.5537   -0.1336    0.8985 C   0  0  0  0  0  0  0  0  0  0  0  0
    4.3459   -0.1662   -0.0315 O   0  0  0  0  0  0  0  0  0  0  0  0
    3.9654   -0.2230    2.1698 N   0  0  0  0  0  0  0  0  0  0  0  0
    5.3454   -0.3678    2.5344 C   0  0  0  0  0  0  0  0  0  0  0  0
    5.5947   -1.6815    3.2182 C   0  0  0  0  0  0  0  0  0  0  0  0
    4.8734   -2.8025    3.0874 C   0  0  0  0  0  0  0  0  0  0  0  0
    5.1028   -4.1056    3.6833 C   0  0  0  0  0  0  0  0  0  0  0  0
    4.1998   -5.1456    3.4678 C   0  0  0  0  0  0  0  0  0  0  0  0
    6.2166   -4.3616    4.4678 C   0  0  0  0  0  0  0  0  0  0  0  0
    4.3989   -6.3980    3.9662 C   0  0  0  0  0  0  0  0  0  0  0  0
    6.4150   -5.6141    4.9663 C   0  0  0  0  0  0  0  0  0  0  0  0
    5.5346   -6.6843    4.7223 C   0  0  0  0  0  0  0  0  0  0  0  0
    5.6678   -7.9446    5.2436 N   0  0  0  0  0  0  0  0  0  0  0  0
    6.8886   -8.4608    5.8342 C   0  0  0  0  0  0  0  0  0  0  0  0
  2  1  2  0
  3  2  1  0
  4  1  1  0
  5  4  2  0
  5  3  1  0
  6  2  1  0
  7  5  1  0
  8  7  2  0
  9  7  1  0
 10  9  1  0
 11 10  1  0
 12 11  2  0
 13 12  1  0
 14 13  2  0
 15 13  1  0
 16 14  1  0
 17 15  2  0
 18 16  2  0
 18 17  1  0
 19 18  1  0
 20 19  1  0
M  END
>  <SMILES>  (44) 
CNc1ccc(C=CCNC(=O)c2ccc(C)o2)cc1

>  <scaffold>  (44) 
furan

$$$$

     RDKit          3D

 21 23  0  0  0  0  0  0  0  0999 V2000
   -0.0000   -0.0000   -0.0000 C   0  0  0  0  0  0  0  0  0  0  0  0
   -0.0000    0.0000    1.3625 C   0  0  0  0  0  0  0  0  0  0  0  0
    1.2487   -0.0000    1.8470 O   0  0  0  0  0  0  0  0  0  0  0  0
    1.3489   -0.0000   -0.4113 C   0  0  0  0  0  0  0  0  0  0  0  0
    2.0895    0.0530    0.7498 C   0  0  0  0  0  0  0  0  0  0  0  0
   -1.3762    0.0000    2.4644 S   0  0  0  0  0  0  0  0  0  0  0  0
    3.5652    0.0124    0.7649 C   0  0  0  0  0  0  0  0  0  0  0  0
    4.2492   -0.2899   -0.2017 O   0  0  0  0  0  0  0  0  0  0  0  0
   -1.2227   -1.5594    3.2725 C   0  0  0  0  0  0  0  0  0  0  0  0
   -1.9537   -1.7271    4.4476 C   0  0  0  0  0  0  0  0  0  0  0  0
   -0.4371   -2.5940    2.7665 C   0  0  0  0  0  0  0  0  0  0  0  0
   -1.9573   -2.8588    5.1053 N   0  0  0  0  0  0  0  0  0  0  0  0
   -0.4395   -3.7844    3.4613 C   0  0  0  0  0  0  0  0  0  0  0  0
   -1.2623   -3.8907    4.6747 C   0  0  0  0  0  0  0  0  0  0  0  0
    4.0749    0.3204    1.9904 N   0  0  0  0  0  0  0  0  0  0  0  0
   -1.2575   -5.0523    5.4309 N   0  0  0  0  0  0  0  0  0  0  0  0
   -1.9325   -5.2003    6.6052 C   0  0  0  0  0  0  0  0  0  0  0  0
   -0.6318   -6.1802    5.0699 N   0  0  0  0  0  0  0  0  0  0  0  0
   -1.5997   -6.4586    7.0084 C   0  0  0  0  0  0  0  0  0  0  0  0
   -0.8093   -7.0530    6.0702 C   0  0  0  0  0  0  0  0  0  0  0  0
   -0.3238   -8.4469    6.0463 C   0  0  0  0  0  0  0  0  0  0  0  0
  2  1  1  0
  3  2  1  0
  4  1  2  0
  5  4  1  0
  5  3  1  0
  6  2  2  0
  7  5  2  0
  8  7  1  0
  9  6  1  0
 10  9  2  0
 11  9  1  0
 12 10  1  0
 13 11  2  0
 14 13  1  0
 14 12  2  0
 15  7  1  0
 16 14  1  0
 17 16  1  0
 18 16  1  0
 19 17  2  0
 20 18  2  0
 20 19  1  0
 21 20  1  0
M  CHG  2   6   1   8  -1
M  END
>  <SMILES>  (45) 
Cc1ccn(-c2ccc([S+]=C3C=CC(=C(N)[O-])O3)cn2)n1

>  <scaffold>  (45) 
furan

$$$$

     RDKit          3D

 26 28  0  0  0  0  0  0  0  0999 V2000
    0.0000   -0.0000   -0.0000 C   0  0  0  0  0  0  0  0  0  0  0  0
    0.0000    0.0000    1.3704 C   0  0  0  0  0  0  0  0  0  0  0  0
    1.3522   -0.0000    1.7707 C   0  0  0  0  0  0  0  0  0  0  0  0
    1.2757   -0.0627   -0.4516 O   0  0  0  0  0  0  0  0  0  0  0  0
    2.1139   -0.0532    0.5930 C   0  0  0  0  0  0  0  0  0  0  0  0
   -1.1976   -0.0588   -0.8612 C   0  0  0  0  0  0  0  0  0  0  0  0
   -2.2766   -0.4449   -0.3976 O   0  0  0  0  0  0  0  0  0  0  0  0
   -1.0563    0.2557   -2.1793 N   0  0  0  0  0  0  0  0  0  0  0  0
    0.0440    0.9295   -2.7484 C   0  0  0  0  0  0  0  0  0  0  0  0
    0.4999    2.1084   -2.1794 C   0  0  0  0  0  0  0  0  0  0  0  0
    0.7020    0.4339   -3.8633 C   0  0  0  0  0  0  0  0  0  0  0  0
    1.6019    2.7016   -2.7376 C   0  0  0  0  0  0  0  0  0  0  0  0
    1.7610    1.0891   -4.4900 C   0  0  0  0  0  0  0  0  0  0  0  0
    2.2175    2.1961   -3.8624 C   0  0  0  0  0  0  0  0  0  0  0  0
   -2.1525    0.0083   -3.1107 C   0  0  0  0  0  0  0  0  0  0  0  0
    2.2844    0.5365   -5.5920 O   0  0  0  0  0  0  0  0  0  0  0  0
    3.3765    1.1288   -6.2244 C   0  0  0  0  0  0  0  0  0  0  0  0
    4.6220    1.1314   -5.6342 C   0  0  0  0  0  0  0  0  0  0  0  0
    3.1995    1.5867   -7.5207 C   0  0  0  0  0  0  0  0  0  0  0  0
    5.6880    1.6888   -6.3230 C   0  0  0  0  0  0  0  0  0  0  0  0
    4.2580    2.1315   -8.1994 C   0  0  0  0  0  0  0  0  0  0  0  0
    5.5296    2.1817   -7.6003 C   0  0  0  0  0  0  0  0  0  0  0  0
    6.4778    2.7935   -8.3500 O   0  0  0  0  0  0  0  0  0  0  0  0
    7.7360    3.0171   -7.7929 C   0  0  0  0  0  0  0  0  0  0  0  0
    7.7579    4.0025   -6.6140 C   0  0  0  0  0  0  0  0  0  0  0  0
    8.6857    4.0198   -5.8511 O   0  0  0  0  0  0  0  0  0  0  0  0
  2  1  2  0
  3  2  1  0
  4  1  1  0
  5  4  1  0
  5  3  2  0
  6  1  1  0
  7  6  2  0
  8  6  1  0
  9  8  1  0
 10  9  2  0
 11  9  1  0
 12 10  1  0
 13 11  2  0
 14 13  1  0
 14 12  2  0
 15  8  1  0
 16 13  1  0
 17 16  1  0
 18 17  2  0
 19 17  1  0
 20 18  1  0
 21 19  2  0
 22 21  1  0
 22 20  2  0
 23 22  1  0
 24 23  1  0
 25 24  1  0
 26 25  2  0
M  END
>  <SMILES>  (46) 
CN(C(=O)c1ccco1)c1cccc(Oc2ccc(OCC=O)cc2)c1

>  <scaffold>  (46) 
furan

$$$$

     RDKit          3D

 30 32  0  0  0  0  0  0  0  0999 V2000
   -0.0000    0.0000   -0.0000 C   0  0  0  0  0  0  0  0  0  0  0  0
    0.0000    0.0000    1.3625 C   0  0  0  0  0  0  0  0  0  0  0  0
    1.2637    0.0000    1.8290 O   0  0  0  0  0  0  0  0  0  0  0  0
    1.3566    0.0000   -0.4137 C   0  0  0  0  0  0  0  0  0  0  0  0
    2.0888   -0.0524    0.7342 C   0  0  0  0  0  0  0  0  0  0  0  0
   -1.0319   -0.0507    2.2867 N   0  0  0  0  0  0  0  0  0  0  0  0
   -2.3403   -0.1150    2.0076 C   0  0  0  0  0  0  0  0  0  0  0  0
   -2.8417   -0.1396    0.9238 O   0  0  0  0  0  0  0  0  0  0  0  0
    3.4245   -0.0237    0.9594 O   0  0  0  0  0  0  0  0  0  0  0  0
   -3.0284   -0.2023    3.1714 O   0  0  0  0  0  0  0  0  0  0  0  0
    4.2466    0.0797   -0.1917 C   0  0  0  0  0  0  0  0  0  0  0  0
   -4.4158   -0.3373    3.1561 N   0  0  0  0  0  0  0  0  0  0  0  0
   -4.9552   -1.2080    2.4016 C   0  0  0  0  0  0  0  0  0  0  0  0
   -6.3660   -1.4183    2.3890 C   0  0  0  0  0  0  0  0  0  0  0  0
   -7.0775   -2.2974    1.5739 C   0  0  0  0  0  0  0  0  0  0  0  0
   -7.3620   -0.8065    3.1923 C   0  0  0  0  0  0  0  0  0  0  0  0
   -8.3883   -2.1248    1.8697 N   0  0  0  0  0  0  0  0  0  0  0  0
   -8.5458   -1.2119    2.8620 N   0  0  0  0  0  0  0  0  0  0  0  0
   -6.4201   -3.2209    0.2762 Cl  0  0  0  0  0  0  0  0  0  0  0  0
   -9.5059   -2.7875    1.3868 C   0  0  0  0  0  0  0  0  0  0  0  0
  -10.6997   -2.0632    1.2596 C   0  0  0  0  0  0  0  0  0  0  0  0
   -9.4636   -4.1346    1.0303 C   0  0  0  0  0  0  0  0  0  0  0  0
  -11.8356   -2.6849    0.8355 C   0  0  0  0  0  0  0  0  0  0  0  0
  -10.6059   -4.7599    0.6039 C   0  0  0  0  0  0  0  0  0  0  0  0
  -11.8728   -4.0252    0.5165 C   0  0  0  0  0  0  0  0  0  0  0  0
  -12.9201   -4.7385    0.0372 O   0  0  0  0  0  0  0  0  0  0  0  0
  -14.1571   -4.0610   -0.1120 C   0  0  0  0  0  0  0  0  0  0  0  0
  -14.8862   -3.8848    1.2191 C   0  0  0  0  0  0  0  0  0  0  0  0
  -16.2002   -3.1115    1.1204 C   0  0  0  0  0  0  0  0  0  0  0  0
  -17.2873   -3.9187    0.4126 C   0  0  0  0  0  0  0  0  0  0  0  0
  2  1  2  0
  3  2  1  0
  4  1  1  0
  5  4  2  0
  5  3  1  0
  6  2  1  0
  7  6  1  0
  8  7  2  0
  9  5  1  0
 10  7  1  0
 11  9  1  0
 12 10  1  0
 13 12  2  0
 14 13  1  0
 15 14  2  0
 16 14  1  0
 17 15  1  0
 18 17  1  0
 18 16  2  0
 19 15  1  0
 20 17  1  0
 21 20  2  0
 22 20  1  0
 23 21  1  0
 24 22  2  0
 25 23  2  0
 25 24  1  0
 26 25  1  0
 27 26  1  0
 28 27  1  0
 29 28  1  0
 30 29  1  0
M  END
>  <SMILES>  (47) 
CCCCOc1ccc(-n2ncc(C=NOC(=O)Nc3ccc(OC)o3)c2Cl)cc1

>  <scaffold>  (47) 
furan

$$$$

     RDKit          3D

 27 29  0  0  0  0  0  0  0  0999 V2000
   -0.0000    0.0000   -0.0000 C   0  0  0  0  0  0  0  0  0  0  0  0
   -0.0000   -0.0000    1.3625 C   0  0  0  0  0  0  0  0  0  0  0  0
    1.2415   -0.0000    1.8442 O   0  0  0  0  0  0  0  0  0  0  0  0
    1.3489   -0.0000   -0.4113 C   0  0  0  0  0  0  0  0  0  0  0  0
    2.0895   -0.0530    0.7498 C   0  0  0  0  0  0  0  0  0  0  0  0
    3.5143   -0.0196    0.9137 C   0  0  0  0  0  0  0  0  0  0  0  0
    4.3499    0.0700   -0.0607 N   0  0  0  0  0  0  0  0  0  0  0  0
    4.0670   -0.0299    2.1591 O   0  0  0  0  0  0  0  0  0  0  0  0
    5.5410    0.1198    0.5497 N   0  0  0  0  0  0  0  0  0  0  0  0
    5.3792    0.0635    1.8351 C   0  0  0  0  0  0  0  0  0  0  0  0
    6.2820    0.0292    2.8550 N   0  0  0  0  0  0  0  0  0  0  0  0
    7.6388    0.1689    2.6569 C   0  0  0  0  0  0  0  0  0  0  0  0
    8.2971    0.1617    3.6782 O   0  0  0  0  0  0  0  0  0  0  0  0
    8.1636    0.3645    1.3002 C   0  0  0  0  0  0  0  0  0  0  0  0
    9.4514    0.5634    0.9904 C   0  0  0  0  0  0  0  0  0  0  0  0
   10.1505    0.8284   -0.2437 C   0  0  0  0  0  0  0  0  0  0  0  0
    9.3740    0.9691   -1.3833 C   0  0  0  0  0  0  0  0  0  0  0  0
   11.5328    0.9558   -0.3726 C   0  0  0  0  0  0  0  0  0  0  0  0
   10.0848    1.2713   -2.5343 C   0  0  0  0  0  0  0  0  0  0  0  0
   12.2434    1.2582   -1.5236 C   0  0  0  0  0  0  0  0  0  0  0  0
   11.4724    1.3759   -2.6190 C   0  0  0  0  0  0  0  0  0  0  0  0
    9.4254    1.4856   -3.7073 O   0  0  0  0  0  0  0  0  0  0  0  0
    8.0292    1.4146   -3.8142 C   0  0  0  0  0  0  0  0  0  0  0  0
    7.4940   -0.0039   -3.6246 C   0  0  0  0  0  0  0  0  0  0  0  0
    8.0697   -0.9793   -4.6500 C   0  0  0  0  0  0  0  0  0  0  0  0
    7.5206   -2.4100   -4.5368 C   0  0  0  0  0  0  0  0  0  0  0  0
    8.0858   -3.3310   -5.6170 C   0  0  0  0  0  0  0  0  0  0  0  0
  2  1  2  0
  3  2  1  0
  4  1  1  0
  5  4  2  0
  5  3  1  0
  6  5  1  0
  7  6  2  0
  8  6  1  0
  9  7  1  0
 10  9  2  0
 10  8  1  0
 11 10  1  0
 12 11  1  0
 13 12  2  0
 14 12  1  0
 15 14  2  0
 16 15  1  0
 17 16  2  0
 18 16  1  0
 19 17  1  0
 20 18  2  0
 21 19  2  0
 21 20  1  0
 22 19  1  0
 23 22  1  0
 24 23  1  0
 25 24  1  0
 26 25  1  0
 27 26  1  0
M  END
>  <SMILES>  (48) 
CCCCCOc1cccc(C=CC(=O)Nc2nnc(-c3ccco3)o2)c1

>  <scaffold>  (48) 
furan

$$$$

     RDKit          3D

 28 30  0  0  0  0  0  0  0  0999 V2000
    0.0000    0.0000   -0.0000 C   0  0  0  0  0  0  0  0  0  0  0  0
   -0.0000   -0.0000    1.3625 C   0  0  0  0  0  0  0  0  0  0  0  0
    1.2487   -0.0000    1.8470 O   0  0  0  0  0  0  0  0  0  0  0  0
    1.3489    0.0000   -0.4113 C   0  0  0  0  0  0  0  0  0  0  0  0
    2.0895    0.0530    0.7498 C   0  0  0  0  0  0  0  0  0  0  0  0
    3.5294    0.1328    0.9113 C   0  0  0  0  0  0  0  0  0  0  0  0
    4.2971    0.0420   -0.1637 N   0  0  0  0  0  0  0  0  0  0  0  0
    4.0939    0.2326    2.1821 C   0  0  0  0  0  0  0  0  0  0  0  0
    5.6053    0.1564   -0.0697 C   0  0  0  0  0  0  0  0  0  0  0  0
    5.4629    0.3554    2.2831 C   0  0  0  0  0  0  0  0  0  0  0  0
    6.2363    0.3748    1.1450 C   0  0  0  0  0  0  0  0  0  0  0  0
    7.7270    0.5514    1.1911 C   0  0  0  0  0  0  0  0  0  0  0  0
    8.0359    1.9913    1.4858 C   0  0  0  0  0  0  0  0  0  0  0  0
    7.8277    3.0050    0.5516 C   0  0  0  0  0  0  0  0  0  0  0  0
    8.5919    2.4172    2.6912 C   0  0  0  0  0  0  0  0  0  0  0  0
    8.0493    4.3437    0.7933 C   0  0  0  0  0  0  0  0  0  0  0  0
    8.8137    3.7633    2.9367 C   0  0  0  0  0  0  0  0  0  0  0  0
    8.5129    4.7209    2.0528 C   0  0  0  0  0  0  0  0  0  0  0  0
    8.8201    6.0117    2.3951 O   0  0  0  0  0  0  0  0  0  0  0  0
    8.6666    7.0183    1.4429 C   0  0  0  0  0  0  0  0  0  0  0  0
    7.2122    7.3234    1.0879 C   0  0  0  0  0  0  0  0  0  0  0  0
    6.8776    7.8676    0.0706 O   0  0  0  0  0  0  0  0  0  0  0  0
    6.3811    6.9647    2.0542 O   0  0  0  0  0  0  0  0  0  0  0  0
    4.9880    7.2501    1.8647 C   0  0  0  0  0  0  0  0  0  0  0  0
    4.6726    8.7022    2.2198 C   0  0  0  0  0  0  0  0  0  0  0  0
    4.8463    8.9452    3.7182 C   0  0  0  0  0  0  0  0  0  0  0  0
    4.5731   10.4195    4.0115 C   0  0  0  0  0  0  0  0  0  0  0  0
    4.8111   10.6193    5.4986 C   0  0  0  0  0  0  0  0  0  0  0  0
  2  1  2  0
  3  2  1  0
  4  1  1  0
  5  4  2  0
  5  3  1  0
  6  5  1  0
  7  6  2  0
  8  6  1  0
  9  7  1  0
 10  8  2  0
 11 10  1  0
 11  9  2  0
 12 11  1  0
 13 12  1  0
 14 13  2  0
 15 13  1  0
 16 14  1  0
 17 15  2  0
 18 17  1  0
 18 16  2  0
 19 18  1  0
 20 19  1  0
 21 20  1  0
 22 21  2  0
 23 21  1  0
 24 23  1  0
 25 24  1  0
 26 25  1  0
 27 26  1  0
 28 27  1  0
M  END
>  <SMILES>  (49) 
CCCCCOC(=O)COc1ccc(Cc2ccc(-c3ccco3)nc2)cc1

>  <scaffold>  (49) 
furan

$$$$

     RDKit          3D

 24 26  0  0  0  0  0  0  0  0999 V2000
   -0.0000   -0.0000   -0.0000 C   0  0  0  0  0  0  0  0  0  0  0  0
   -0.0000   -0.0000    1.3548 C   0  0  0  0  0  0  0  0  0  0  0  0
    1.2637   -0.0000    1.8213 O   0  0  0  0  0  0  0  0  0  0  0  0
    1.3566    0.0000   -0.4137 C   0  0  0  0  0  0  0  0  0  0  0  0
    2.0888   -0.0524    0.7342 C   0  0  0  0  0  0  0  0  0  0  0  0
    3.5513   -0.1365    0.9765 C   0  0  0  0  0  0  0  0  0  0  0  0
    4.2028   -1.8352    0.6660 S   0  0  0  0  0  0  0  0  0  0  0  0
    3.0133   -2.7833    1.5967 C   0  0  0  0  0  0  0  0  0  0  0  0
    2.7262   -2.5087    2.9248 C   0  0  0  0  0  0  0  0  0  0  0  0
    2.3994   -3.8342    0.9669 C   0  0  0  0  0  0  0  0  0  0  0  0
    1.8354   -3.2999    3.6175 C   0  0  0  0  0  0  0  0  0  0  0  0
    1.4996   -4.6347    1.6692 C   0  0  0  0  0  0  0  0  0  0  0  0
    1.1907   -4.3912    3.0368 C   0  0  0  0  0  0  0  0  0  0  0  0
    0.3074   -5.0542    3.7945 O   0  0  0  0  0  0  0  0  0  0  0  0
    0.9016   -5.7922    0.9571 C   0  0  0  0  0  0  0  0  0  0  0  0
    0.9172   -6.9218    1.3854 O   0  0  0  0  0  0  0  0  0  0  0  0
    0.2952   -5.4552   -0.2338 N   0  0  0  0  0  0  0  0  0  0  0  0
   -0.2994   -6.2933   -1.1522 C   0  0  0  0  0  0  0  0  0  0  0  0
   -0.9427   -5.6697   -2.1477 N   0  0  0  0  0  0  0  0  0  0  0  0
   -0.2759   -7.6938   -1.0871 C   0  0  0  0  0  0  0  0  0  0  0  0
   -1.5088   -6.3718   -3.1172 C   0  0  0  0  0  0  0  0  0  0  0  0
   -0.8602   -8.4209   -2.0910 C   0  0  0  0  0  0  0  0  0  0  0  0
   -1.4691   -7.7489   -3.1557 C   0  0  0  0  0  0  0  0  0  0  0  0
   -2.1040   -8.4269   -4.1419 F   0  0  0  0  0  0  0  0  0  0  0  0
  2  1  2  0
  3  2  1  0
  4  1  1  0
  5  4  2  0
  5  3  1  0
  6  5  1  0
  7  6  1  0
  8  7  1  0
  9  8  2  0
 10  8  1  0
 11  9  1  0
 12 10  2  0
 13 12  1  0
 13 11  2  0
 14 13  1  0
 15 12  1  0
 16 15  2  0
 17 15  1  0
 18 17  1  0
 19 18  2  0
 20 18  1  0
 21 19  1  0
 22 20  2  0
 23 22  1  0
 23 21  2  0
 24 23  1  0
M  END
>  <SMILES>  (50) 
O=C(Nc1ccc(F)cn1)c1cc(SCc2ccco2)ccc1O

>  <scaffold>  (50) 
furan

$$$$
