
     RDKit          3D

 33 35  0  0  0  0  0  0  0  0999 V2000
   -0.0000    0.0000    0.0000 C   0  0  0  0  0  0  0  0  0  0  0  0
    0.0000    0.0000    1.3625 C   0  0  0  0  0  0  0  0  0  0  0  0
    1.3599   -0.0000    1.7652 C   0  0  0  0  0  0  0  0  0  0  0  0
    1.2559   -0.0000   -0.5080 O   0  0  0  0  0  0  0  0  0  0  0  0
    2.0974   -0.0509    0.5426 C   0  0  0  0  0  0  0  0  0  0  0  0
   -1.1053    0.0543   -0.9898 C   0  0  0  0  0  0  0  0  0  0  0  0
   -2.4876   -0.0818   -0.3532 C   0  0  0  0  0  0  0  0  0  0  0  0
   -3.5281    0.0284   -1.3466 N   0  0  0  0  0  0  0  0  0  0  0  0
   -3.9880   -1.0454   -2.0328 C   0  0  0  0  0  0  0  0  0  0  0  0
   -3.6456   -2.2712   -1.6409 N   0  0  0  0  0  0  0  0  0  0  0  0
   -4.8475   -0.8528   -3.1237 C   0  0  0  0  0  0  0  0  0  0  0  0
   -4.1504   -3.2804   -2.3046 C   0  0  0  0  0  0  0  0  0  0  0  0
   -5.3794   -1.9163   -3.8206 C   0  0  0  0  0  0  0  0  0  0  0  0
   -5.0238   -3.1752   -3.3964 C   0  0  0  0  0  0  0  0  0  0  0  0
   -6.1577   -1.6842   -4.8856 F   0  0  0  0  0  0  0  0  0  0  0  0
   -3.7727   -4.4721   -1.7827 F   0  0  0  0  0  0  0  0  0  0  0  0
   -5.5628   -4.2564   -4.0264 N   0  0  0  0  0  0  0  0  0  0  0  0
   -5.0948   -5.6081   -3.9169 C   0  0  0  0  0  0  0  0  0  0  0  0
   -3.6560   -5.7542   -4.3527 C   0  0  0  0  0  0  0  0  0  0  0  0
   -2.9682   -6.8774   -3.9465 C   0  0  0  0  0  0  0  0  0  0  0  0
   -2.9917   -4.8551   -5.1722 C   0  0  0  0  0  0  0  0  0  0  0  0
   -1.6838   -7.0755   -4.3557 C   0  0  0  0  0  0  0  0  0  0  0  0
   -1.6917   -5.0562   -5.5836 C   0  0  0  0  0  0  0  0  0  0  0  0
   -1.0070   -6.1741   -5.1897 C   0  0  0  0  0  0  0  0  0  0  0  0
    0.2756   -6.4415   -5.6175 N   0  0  0  0  0  0  0  0  0  0  0  0
    1.0870   -5.4595   -6.2951 C   0  0  0  0  0  0  0  0  0  0  0  0
    0.8532   -5.4781   -7.8048 C   0  0  0  0  0  0  0  0  0  0  0  0
    1.7209   -4.1470   -8.7017 S   0  0  0  0  0  0  0  0  0  0  0  0
    3.4306   -4.7407   -8.5766 C   0  0  0  0  0  0  0  0  0  0  0  0
    3.7815   -5.8219   -9.5844 C   0  0  0  0  0  0  0  0  0  0  0  0
    5.2125   -6.3249   -9.4017 C   0  0  0  0  0  0  0  0  0  0  0  0
    5.5306   -7.3626  -10.4647 C   0  0  0  0  0  0  0  0  0  0  0  0
    6.9193   -7.9318  -10.2941 C   0  0  0  0  0  0  0  0  0  0  0  0
  2  1  2  0
  3  2  1  0
  4  1  1  0
  5  4  1  0
  5  3  2  0
  6  1  1  0
  7  6  1  0
  8  7  1  0
  9  8  1  0
 10  9  2  0
 11  9  1  0
 12 10  1  0
 13 11  2  0
 14 13  1  0
 14 12  2  0
 15 13  1  0
 16 12  1  0
 17 14  1  0
 18 17  1  0
 19 18  1  0
 20 19  2  0
 21 19  1  0
 22 20  1  0
 23 21  2  0
 24 22  2  0
 24 23  1  0
 25 24  1  0
 26 25  1  0
 27 26  1  0
 28 27  1  0
 29 28  1  0
 30 29  1  0
 31 30  1  0
 32 31  1  0
 33 32  1  0
M  END
>  <SMILES>  (1) 
CCCCCSCCNc1ccc(CNc2c(F)cc(NCCc3ccco3)nc2F)cc1

>  <scaffold>  (1) 
furan

$$$$

     RDKit          3D

 16 17  0  0  0  0  0  0  0  0999 V2000
   -0.0000   -0.0000    0.0000 C   0  0  0  0  0  0  0  0  0  0  0  0
    0.0000    0.0000    1.3625 C   0  0  0  0  0  0  0  0  0  0  0  0
    1.2487   -0.0000    1.8470 O   0  0  0  0  0  0  0  0  0  0  0  0
    1.3489    0.0000   -0.4113 C   0  0  0  0  0  0  0  0  0  0  0  0
    2.0853    0.0527    0.7432 C   0  0  0  0  0  0  0  0  0  0  0  0
   -1.3606    0.0000    2.4519 S   0  0  0  0  0  0  0  0  0  0  0  0
   -0.6851   -0.6755    3.9456 C   0  0  0  0  0  0  0  0  0  0  0  0
    0.2547   -1.5864    3.8029 N   0  0  0  0  0  0  0  0  0  0  0  0
   -1.1417   -0.2329    5.1773 C   0  0  0  0  0  0  0  0  0  0  0  0
    0.7485   -2.1459    4.8783 C   0  0  0  0  0  0  0  0  0  0  0  0
   -0.6193   -0.8254    6.3164 C   0  0  0  0  0  0  0  0  0  0  0  0
    0.3454   -1.8420    6.1778 C   0  0  0  0  0  0  0  0  0  0  0  0
    3.5418    0.1334    0.9065 C   0  0  0  0  0  0  0  0  0  0  0  0
    4.3264    0.0524   -0.0086 O   0  0  0  0  0  0  0  0  0  0  0  0
    0.9816   -2.6471    7.5375 Cl  0  0  0  0  0  0  0  0  0  0  0  0
    3.8316    0.3182    2.1931 O   0  0  0  0  0  0  0  0  0  0  0  0
  2  1  1  0
  3  2  1  0
  4  1  2  0
  5  4  1  0
  5  3  1  0
  6  2  2  0
  7  6  1  0
  8  7  2  0
  9  7  1  0
 10  8  1  0
 11  9  2  0
 12 10  2  0
 12 11  1  0
 13  5  2  0
 14 13  1  0
 15 12  1  0
 16 13  1  0
M  CHG  2   6   1  14  -1
M  END
>  <SMILES>  (2) 
[O-]C(O)=C1C=CC(=[S+]c2ccc(Cl)cn2)O1

>  <scaffold>  (2) 
furan

$$$$

     RDKit          3D

 25 26  0  0  0  0  0  0  0  0999 V2000
   -0.0000    0.0000   -0.0000 C   0  0  0  0  0  0  0  0  0  0  0  0
    0.0000   -0.0000    1.3782 C   0  0  0  0  0  0  0  0  0  0  0  0
    1.3444   -0.0000    1.7763 C   0  0  0  0  0  0  0  0  0  0  0  0
    1.2487   -0.0000   -0.5051 O   0  0  0  0  0  0  0  0  0  0  0  0
    2.0902   -0.0509    0.5455 C   0  0  0  0  0  0  0  0  0  0  0  0
   -1.1458    0.0000   -0.9174 C   0  0  0  0  0  0  0  0  0  0  0  0
   -2.2901    0.0562   -0.5124 O   0  0  0  0  0  0  0  0  0  0  0  0
    3.5396   -0.1209    0.2736 C   0  0  0  0  0  0  0  0  0  0  0  0
   -0.8072   -0.0536   -2.2281 N   0  0  0  0  0  0  0  0  0  0  0  0
   -1.7859   -0.0059   -3.2871 C   0  0  0  0  0  0  0  0  0  0  0  0
    4.1224   -1.7965    0.7004 S   0  0  0  0  0  0  0  0  0  0  0  0
   -1.6130    1.2086   -4.1234 C   0  0  0  0  0  0  0  0  0  0  0  0
   -0.5565    1.4652   -4.7978 N   0  0  0  0  0  0  0  0  0  0  0  0
   -2.8733    2.3966   -4.1841 S   0  0  0  0  0  0  0  0  0  0  0  0
   -0.6282    2.6526   -5.4299 C   0  0  0  0  0  0  0  0  0  0  0  0
   -1.8220    3.3330   -5.2285 C   0  0  0  0  0  0  0  0  0  0  0  0
   -2.2514    4.6472   -5.6958 C   0  0  0  0  0  0  0  0  0  0  0  0
   -1.5921    5.3883   -6.3734 O   0  0  0  0  0  0  0  0  0  0  0  0
    0.4858    3.1163   -6.3240 C   0  0  0  0  0  0  0  0  0  0  0  0
   -3.4651    4.9654   -5.2272 O   0  0  0  0  0  0  0  0  0  0  0  0
   -3.9745    6.2531   -5.5693 C   0  0  0  0  0  0  0  0  0  0  0  0
   -3.4063    7.3312   -4.6477 C   0  0  2  0  0  0  0  0  0  0  0  0
   -3.8327    7.1253   -3.1951 C   0  0  0  0  0  0  0  0  0  0  0  0
   -3.8736    8.7063   -5.1497 C   0  0  0  0  0  0  0  0  0  0  0  0
   -3.1559    9.8291   -4.4024 C   0  0  0  0  0  0  0  0  0  0  0  0
  2  1  2  0
  3  2  1  0
  4  1  1  0
  5  4  1  0
  5  3  2  0
  6  1  1  0
  7  6  2  0
  8  5  1  0
  9  6  1  0
 10  9  1  0
 11  8  1  0
 12 10  1  0
 13 12  1  0
 14 12  2  0
 15 13  2  0
 16 15  1  0
 16 14  1  0
 17 16  2  0
 18 17  1  0
 19 15  1  0
 20 17  1  0
 21 20  1  0
 22 21  1  0
 22 23  1  1
 24 22  1  0
 25 24  1  0
M  CHG  2  14   1  18  -1
M  END
>  <SMILES>  (3) 
CCC(C)COC([O-])=C1[S+]=C(CNC(=O)c2ccc(CS)o2)N=C1C

>  <scaffold>  (3) 
furan

$$$$

     RDKit          3D

 22 24  0  0  0  0  0  0  0  0999 V2000
   -0.0000   -0.0000    0.0000 C   0  0  0  0  0  0  0  0  0  0  0  0
   -0.0000    0.0000    1.3704 C   0  0  0  0  0  0  0  0  0  0  0  0
    1.3821    0.0000    1.7550 C   0  0  0  0  0  0  0  0  0  0  0  0
    1.2777    0.0000   -0.5168 O   0  0  0  0  0  0  0  0  0  0  0  0
    2.1192    0.0509    0.5338 C   0  0  0  0  0  0  0  0  0  0  0  0
    3.5028    0.1245    0.4936 C   0  0  0  0  0  0  0  0  0  0  0  0
    4.1943    0.1139    1.6766 C   0  0  0  0  0  0  0  0  0  0  0  0
    3.4769    0.0297    2.8690 C   0  0  0  0  0  0  0  0  0  0  0  0
    2.1181   -0.0438    2.9392 C   0  0  0  0  0  0  0  0  0  0  0  0
   -1.1657    0.0000   -0.9333 C   0  0  0  0  0  0  0  0  0  0  0  0
    4.5311    0.0974    4.3439 S   0  0  0  0  0  6  0  0  0  0  0  0
    5.8892   -0.3108    4.0778 O   0  0  0  0  0  0  0  0  0  0  0  0
    3.7796   -0.6122    5.3506 O   0  0  0  0  0  0  0  0  0  0  0  0
    4.5585    1.8857    4.7549 C   0  0  0  0  0  0  0  0  0  0  0  0
    5.3966    2.5920    3.7407 C   0  0  0  0  0  0  0  0  0  0  0  0
    6.7981    2.6588    3.8817 C   0  0  0  0  0  0  0  0  0  0  0  0
    4.8079    3.1552    2.6192 C   0  0  0  0  0  0  0  0  0  0  0  0
    7.5385    3.2824    2.8896 C   0  0  0  0  0  0  0  0  0  0  0  0
    5.5459    3.7732    1.6328 C   0  0  0  0  0  0  0  0  0  0  0  0
    6.9322    3.7822    1.7477 C   0  0  0  0  0  0  0  0  0  0  0  0
    7.3139    2.1435    5.0420 O   0  0  0  0  0  0  0  0  0  0  0  0
    8.6243    2.3470    5.4174 C   0  0  0  0  0  0  0  0  0  0  0  0
  2  1  2  0
  3  2  1  0
  4  1  1  0
  5  4  1  0
  5  3  2  0
  6  5  1  0
  7  6  2  0
  8  7  1  0
  9  8  2  0
  9  3  1  0
 10  1  1  0
 11  8  1  0
 12 11  2  0
 13 11  2  0
 14 11  1  0
 15 14  1  0
 16 15  2  0
 17 15  1  0
 18 16  1  0
 19 17  2  0
 20 19  1  0
 20 18  2  0
 21 16  1  0
 22 21  1  0
M  END
>  <SMILES>  (4) 
COc1ccccc1CS(=O)(=O)c1ccc2oc(C)cc2c1

>  <scaffold>  (4) 
furan

$$$$

     RDKit          3D

 25 26  0  0  0  0  0  0  0  0999 V2000
    0.0000    0.0000    0.0000 C   0  0  0  0  0  0  0  0  0  0  0  0
    0.0000   -0.0000    1.3704 C   0  0  0  0  0  0  0  0  0  0  0  0
    1.3522   -0.0000    1.7707 C   0  0  0  0  0  0  0  0  0  0  0  0
    1.2559   -0.0000   -0.5080 O   0  0  0  0  0  0  0  0  0  0  0  0
    2.0926    0.0506    0.5366 C   0  0  0  0  0  0  0  0  0  0  0  0
   -1.1534    0.1136   -0.9280 C   0  0  0  0  0  0  0  0  0  0  0  0
   -2.2467    0.4453   -0.5796 O   0  0  0  0  0  0  0  0  0  0  0  0
   -0.7813   -0.1747   -2.1819 O   0  0  0  0  0  0  0  0  0  0  0  0
   -1.6659   -0.0890   -3.2560 C   0  0  0  0  0  0  0  0  0  0  0  0
   -2.5469    0.9725   -3.3914 C   0  0  0  0  0  0  0  0  0  0  0  0
   -1.6142   -1.0956   -4.2191 C   0  0  0  0  0  0  0  0  0  0  0  0
   -3.3685    1.0393   -4.4960 C   0  0  0  0  0  0  0  0  0  0  0  0
   -2.4400   -1.0265   -5.3303 C   0  0  0  0  0  0  0  0  0  0  0  0
   -3.2765    0.0948   -5.4846 C   0  0  0  0  0  0  0  0  0  0  0  0
   -2.5176   -1.9665   -6.3028 O   0  0  0  0  0  0  0  0  0  0  0  0
   -1.5947   -3.0218   -6.3255 C   0  0  0  0  0  0  0  0  0  0  0  0
   -0.1884   -2.5078   -6.5819 C   0  0  0  0  0  0  0  0  0  0  0  0
    0.1299   -1.3613   -6.7476 O   0  0  0  0  0  0  0  0  0  0  0  0
    0.6400   -3.5390   -6.6420 O   0  0  0  0  0  0  0  0  0  0  0  0
    2.0007   -3.1833   -6.8244 C   0  0  0  0  0  0  0  0  0  0  0  0
    2.2041   -2.2860   -8.0662 C   0  0  0  0  0  0  0  0  0  0  0  0
    1.5345   -2.4417   -9.0597 O   0  0  0  0  0  0  0  0  0  0  0  0
    3.1469   -1.3543   -7.9383 N   0  0  0  0  0  0  0  0  0  0  0  0
    3.4488   -0.3832   -8.9619 C   0  0  0  0  0  0  0  0  0  0  0  0
    4.8915   -0.5137   -9.4196 C   0  0  0  0  0  0  0  0  0  0  0  0
  2  1  2  0
  3  2  1  0
  4  1  1  0
  5  4  1  0
  5  3  2  0
  6  1  1  0
  7  6  2  0
  8  6  1  0
  9  8  1  0
 10  9  2  0
 11  9  1  0
 12 10  1  0
 13 11  2  0
 14 13  1  0
 14 12  2  0
 15 13  1  0
 16 15  1  0
 17 16  1  0
 18 17  2  0
 19 17  1  0
 20 19  1  0
 21 20  1  0
 22 21  2  0
 23 21  1  0
 24 23  1  0
 25 24  1  0
M  END
>  <SMILES>  (5) 
CCNC(=O)COC(=O)COc1cccc(OC(=O)c2ccco2)c1

>  <scaffold>  (5) 
furan

$$$$

     RDKit          3D

 19 20  0  0  0  0  0  0  0  0999 V2000
    0.0000    0.0000   -0.0000 C   0  0  0  0  0  0  0  0  0  0  0  0
    0.0000   -0.0000    1.3704 C   0  0  0  0  0  0  0  0  0  0  0  0
    1.3586    0.0000    1.7484 C   0  0  0  0  0  0  0  0  0  0  0  0
    1.2559    0.0000   -0.5080 O   0  0  0  0  0  0  0  0  0  0  0  0
    2.0926    0.0506    0.5366 C   0  0  0  0  0  0  0  0  0  0  0  0
   -1.1458    0.0000   -0.9174 C   0  0  0  0  0  0  0  0  0  0  0  0
   -2.2949    0.0000   -0.5670 O   0  0  0  0  0  0  0  0  0  0  0  0
   -0.7463   -0.0526   -2.1867 O   0  0  0  0  0  0  0  0  0  0  0  0
   -1.6975   -0.0060   -3.2158 C   0  0  0  0  0  0  0  0  0  0  0  0
   -2.6790    0.9615   -3.2033 C   0  0  0  0  0  0  0  0  0  0  0  0
   -1.5988   -0.9469   -4.2289 C   0  0  0  0  0  0  0  0  0  0  0  0
   -3.5719    0.9986   -4.2733 C   0  0  0  0  0  0  0  0  0  0  0  0
   -2.4865   -0.9091   -5.2929 C   0  0  0  0  0  0  0  0  0  0  0  0
   -3.4592    0.1395   -5.3553 C   0  0  0  0  0  0  0  0  0  0  0  0
   -4.5250    1.9607   -4.1231 O   0  0  0  0  0  0  0  0  0  0  0  0
   -2.4569   -1.7433   -6.3699 O   0  0  0  0  0  0  0  0  0  0  0  0
   -1.3488   -2.6230   -6.5513 C   0  0  0  0  0  0  0  0  0  0  0  0
   -0.0811   -1.8967   -6.9983 C   0  0  0  0  0  0  0  0  0  0  0  0
   -5.4078    2.2140   -5.2038 C   0  0  0  0  0  0  0  0  0  0  0  0
  2  1  2  0
  3  2  1  0
  4  1  1  0
  5  4  1  0
  5  3  2  0
  6  1  1  0
  7  6  2  0
  8  6  1  0
  9  8  1  0
 10  9  2  0
 11  9  1  0
 12 10  1  0
 13 11  2  0
 14 13  1  0
 14 12  2  0
 15 12  1  0
 16 13  1  0
 17 16  1  0
 18 17  1  0
 19 15  1  0
M  END
>  <SMILES>  (6) 
CCOc1cc(OC)cc(OC(=O)c2ccco2)c1

>  <scaffold>  (6) 
furan

$$$$

     RDKit          3D

 20 22  0  0  0  0  0  0  0  0999 V2000
   -0.0000   -0.0000   -0.0000 C   0  0  0  0  0  0  0  0  0  0  0  0
    0.0000   -0.0000    1.3625 C   0  0  0  0  0  0  0  0  0  0  0  0
    1.2487   -0.0000    1.8470 O   0  0  0  0  0  0  0  0  0  0  0  0
    1.3489    0.0000   -0.4113 C   0  0  0  0  0  0  0  0  0  0  0  0
    2.0853    0.0527    0.7432 C   0  0  0  0  0  0  0  0  0  0  0  0
    3.5609    0.0121    0.7583 C   0  0  0  0  0  0  0  0  0  0  0  0
    4.2052   -0.2322   -0.2426 O   0  0  0  0  0  0  0  0  0  0  0  0
    4.1579    0.2167    1.9483 N   0  0  0  0  0  0  0  0  0  0  0  0
    5.5779    0.0531    2.1446 C   0  0  0  0  0  0  0  0  0  0  0  0
    5.8703   -1.2290    2.8522 C   0  0  0  0  0  0  0  0  0  0  0  0
    5.1336   -1.7665    3.7704 N   0  0  0  0  0  0  0  0  0  0  0  0
    6.9668   -1.9575    2.6058 O   0  0  0  0  0  0  0  0  0  0  0  0
    5.8601   -2.8679    4.1106 C   0  0  0  0  0  0  0  0  0  0  0  0
    6.9630   -3.0235    3.4419 C   0  0  0  0  0  0  0  0  0  0  0  0
    8.0247   -4.0203    3.3461 C   0  0  0  0  0  0  0  0  0  0  0  0
    8.1373   -5.0561    4.2603 C   0  0  0  0  0  0  0  0  0  0  0  0
    8.9425   -3.8795    2.3061 C   0  0  0  0  0  0  0  0  0  0  0  0
    9.1270   -6.0019    4.1008 C   0  0  0  0  0  0  0  0  0  0  0  0
    9.9388   -4.8297    2.1455 C   0  0  0  0  0  0  0  0  0  0  0  0
   10.0262   -5.9761    3.0670 C   0  0  0  0  0  0  0  0  0  0  0  0
  2  1  2  0
  3  2  1  0
  4  1  1  0
  5  4  2  0
  5  3  1  0
  6  5  1  0
  7  6  2  0
  8  6  1  0
  9  8  1  0
 10  9  1  0
 11 10  2  0
 12 10  1  0
 13 11  1  0
 14 13  2  0
 14 12  1  0
 15 14  1  0
 16 15  2  0
 17 15  1  0
 18 16  1  0
 19 17  2  0
 20 18  2  0
 20 19  1  0
M  END
>  <SMILES>  (7) 
O=C(NCc1ncc(-c2ccccc2)o1)c1ccco1

>  <scaffold>  (7) 
furan

$$$$

     RDKit          3D

 22 23  0  0  0  0  0  0  0  0999 V2000
    0.0000    0.0000    0.0000 C   0  0  0  0  0  0  0  0  0  0  0  0
   -0.0000   -0.0000    1.3704 C   0  0  0  0  0  0  0  0  0  0  0  0
    1.3586   -0.0000    1.7484 C   0  0  0  0  0  0  0  0  0  0  0  0
    1.2416   -0.0000   -0.5023 O   0  0  0  0  0  0  0  0  0  0  0  0
    2.0879    0.0512    0.5544 C   0  0  0  0  0  0  0  0  0  0  0  0
   -1.0396    0.0000   -0.8323 F   0  0  0  0  0  0  0  0  0  0  0  0
    1.8399    0.0542    3.0387 N   0  0  0  0  0  0  0  0  0  0  0  0
    3.4696    0.0098    0.3734 C   0  0  0  0  0  0  0  0  0  0  0  0
    4.6043   -0.0220    0.2585 N   0  0  0  0  0  0  0  0  0  0  0  0
    1.0954    0.1187    4.2062 C   0  0  0  0  0  0  0  0  0  0  0  0
   -0.1191    0.1330    4.1720 O   0  0  0  0  0  0  0  0  0  0  0  0
    1.8623    0.2131    5.3001 N   0  0  0  0  0  0  0  0  0  0  0  0
    1.2738    0.2348    6.6264 C   0  0  0  0  0  0  0  0  0  0  0  0
    1.7149   -0.9638    7.4165 C   0  0  0  0  0  0  0  0  0  0  0  0
    3.0419   -1.2273    7.6348 C   0  0  0  0  0  0  0  0  0  0  0  0
    0.8098   -1.8879    7.9147 C   0  0  0  0  0  0  0  0  0  0  0  0
    3.4952   -2.3398    8.3105 C   0  0  0  0  0  0  0  0  0  0  0  0
    1.2652   -2.9984    8.5921 C   0  0  0  0  0  0  0  0  0  0  0  0
    2.5712   -3.2584    8.8065 C   0  0  0  0  0  0  0  0  0  0  0  0
    2.8982   -4.4183    9.4424 O   0  0  0  0  0  0  0  0  0  0  0  0
    4.2573   -4.7171    9.6144 C   0  0  0  0  0  0  0  0  0  0  0  0
    4.9751   -3.8208   10.6089 C   0  0  0  0  0  0  0  0  0  0  0  0
  2  1  2  0
  3  2  1  0
  4  1  1  0
  5  4  1  0
  5  3  2  0
  6  1  1  0
  7  3  1  0
  8  5  1  0
  9  8  3  0
 10  7  1  0
 11 10  2  0
 12 10  1  0
 13 12  1  0
 14 13  1  0
 15 14  2  0
 16 14  1  0
 17 15  1  0
 18 16  2  0
 19 18  1  0
 19 17  2  0
 20 19  1  0
 21 20  1  0
 22 21  1  0
M  END
>  <SMILES>  (8) 
CCOc1ccc(CNC(=O)Nc2cc(F)oc2C#N)cc1

>  <scaffold>  (8) 
furan

$$$$

     RDKit          3D

 20 21  0  0  0  0  0  0  0  0999 V2000
    0.0000   -0.0000   -0.0000 C   0  0  0  0  0  0  0  0  0  0  0  0
    0.0000    0.0000    1.3625 C   0  0  0  0  0  0  0  0  0  0  0  0
    1.3599    0.0000    1.7652 C   0  0  0  0  0  0  0  0  0  0  0  0
    1.2487   -0.0000   -0.5051 O   0  0  0  0  0  0  0  0  0  0  0  0
    2.0902    0.0509    0.5455 C   0  0  0  0  0  0  0  0  0  0  0  0
   -1.3921   -0.0000   -1.1146 S   0  0  0  0  0  6  0  0  0  0  0  0
   -1.1280   -0.8474   -2.2207 O   0  0  0  0  0  0  0  0  0  0  0  0
   -2.5922   -0.1182   -0.3375 O   0  0  0  0  0  0  0  0  0  0  0  0
   -1.3921    1.5612   -1.7461 N   0  0  0  0  0  0  0  0  0  0  0  0
    3.4143    0.0082    0.3013 F   0  0  0  0  0  0  0  0  0  0  0  0
   -0.9601    2.5829   -0.8754 C   0  0  0  0  0  0  0  0  0  0  0  0
    0.1657    3.3306   -1.1833 C   0  0  0  0  0  0  0  0  0  0  0  0
   -1.5990    2.8218    0.3313 C   0  0  0  0  0  0  0  0  0  0  0  0
    0.5779    4.2851   -0.2785 C   0  0  0  0  0  0  0  0  0  0  0  0
   -1.1782    3.7860    1.2461 C   0  0  0  0  0  0  0  0  0  0  0  0
   -0.0579    4.5564    0.9321 C   0  0  0  0  0  0  0  0  0  0  0  0
    0.3309    5.4332    1.8560 O   0  0  0  0  0  0  0  0  0  0  0  0
   -1.8970    3.8377    2.3933 O   0  0  0  0  0  0  0  0  0  0  0  0
    1.5705    6.0632    1.6215 C   0  0  0  0  0  0  0  0  0  0  0  0
   -1.6617    4.7806    3.4152 C   0  0  0  0  0  0  0  0  0  0  0  0
  2  1  2  0
  3  2  1  0
  4  1  1  0
  5  4  1  0
  5  3  2  0
  6  1  1  0
  7  6  2  0
  8  6  2  0
  9  6  1  0
 10  5  1  0
 11  9  1  0
 12 11  2  0
 13 11  1  0
 14 12  1  0
 15 13  2  0
 16 15  1  0
 16 14  2  0
 17 16  1  0
 18 15  1  0
 19 17  1  0
 20 18  1  0
M  END
>  <SMILES>  (9) 
COc1ccc(NS(=O)(=O)c2ccc(F)o2)cc1OC

>  <scaffold>  (9) 
furan

$$$$

     RDKit          3D

 22 23  0  0  0  0  0  0  0  0999 V2000
    0.0000   -0.0000    0.0000 C   0  0  0  0  0  0  0  0  0  0  0  0
   -0.0000   -0.0000    1.3625 C   0  0  0  0  0  0  0  0  0  0  0  0
    1.2487    0.0000    1.8470 O   0  0  0  0  0  0  0  0  0  0  0  0
    1.3489   -0.0000   -0.4113 C   0  0  0  0  0  0  0  0  0  0  0  0
    2.0853   -0.0527    0.7432 C   0  0  0  0  0  0  0  0  0  0  0  0
    3.5684   -0.0179    0.9138 C   0  0  0  0  0  0  0  0  0  0  0  0
    4.0361    1.3502    1.0367 N   0  0  0  0  0  0  0  0  0  0  0  0
    4.5401    2.0271   -0.0232 C   0  0  0  0  0  0  0  0  0  0  0  0
    4.8265    1.3924   -1.1316 N   0  0  0  0  0  0  0  0  0  0  0  0
    4.8648    3.4253    0.1228 C   0  0  0  0  0  0  0  0  0  0  0  0
    5.3640    2.0897   -2.1308 N   0  0  0  0  0  0  0  0  0  0  0  0
    5.4222    4.1380   -0.9065 C   0  0  0  0  0  0  0  0  0  0  0  0
    5.6246    3.3490   -2.0881 C   0  0  0  0  0  0  0  0  0  0  0  0
    4.5754    3.9569    1.3348 O   0  0  0  0  0  0  0  0  0  0  0  0
    4.8943    5.2926    1.6178 C   0  0  0  0  0  0  0  0  0  0  0  0
    6.2102    3.9997   -3.1017 O   0  0  0  0  0  0  0  0  0  0  0  0
    6.5225    3.1795   -4.2366 C   0  0  0  0  0  0  0  0  0  0  0  0
    5.3072    2.8987   -5.1190 C   0  0  0  0  0  0  0  0  0  0  0  0
    5.5978    2.0739   -6.3718 C   0  0  0  0  0  0  0  0  0  0  0  0
    4.3620    1.8679   -7.2462 C   0  0  0  0  0  0  0  0  0  0  0  0
    4.6112    1.0948   -8.5402 C   0  0  0  0  0  0  0  0  0  0  0  0
    3.3570    0.9636   -9.4029 C   0  0  0  0  0  0  0  0  0  0  0  0
  2  1  2  0
  3  2  1  0
  4  1  1  0
  5  4  2  0
  5  3  1  0
  6  5  1  0
  7  6  1  0
  8  7  1  0
  9  8  2  0
 10  8  1  0
 11  9  1  0
 12 10  2  0
 13 12  1  0
 13 11  2  0
 14 10  1  0
 15 14  1  0
 16 13  1  0
 17 16  1  0
 18 17  1  0
 19 18  1  0
 20 19  1  0
 21 20  1  0
 22 21  1  0
M  END
>  <SMILES>  (10) 
CCCCCCOc1cc(OC)c(NCc2ccco2)nn1

>  <scaffold>  (10) 
furan

$$$$

     RDKit          3D

 36 38  0  0  0  0  0  0  0  0999 V2000
    0.0000   -0.0000    0.0000 C   0  0  0  0  0  0  0  0  0  0  0  0
    0.0000   -0.0000    1.3704 C   0  0  0  0  0  0  0  0  0  0  0  0
    1.2565   -0.0000    1.8342 O   0  0  0  0  0  0  0  0  0  0  0  0
    1.3412   -0.0000   -0.4090 C   0  0  0  0  0  0  0  0  0  0  0  0
    2.0818    0.0530    0.7521 C   0  0  0  0  0  0  0  0  0  0  0  0
   -1.1657   -0.0000    2.3037 C   0  0  0  0  0  0  0  0  0  0  0  0
   -2.3665   -0.4974    1.7779 O   0  0  0  0  0  0  0  0  0  0  0  0
    3.5575    0.0124    0.7672 C   0  0  0  0  0  0  0  0  0  0  0  0
    4.1918   -0.3428   -0.2326 O   0  0  0  0  0  0  0  0  0  0  0  0
   -2.3836   -1.8195    1.3890 C   0  0  0  0  0  0  0  0  0  0  0  0
   -1.3711   -2.7591    1.5055 C   0  0  0  0  0  0  0  0  0  0  0  0
   -3.5760   -2.2525    0.8302 C   0  0  0  0  0  0  0  0  0  0  0  0
   -1.5294   -4.0818    1.1223 C   0  0  0  0  0  0  0  0  0  0  0  0
   -3.7341   -3.5759    0.4493 C   0  0  0  0  0  0  0  0  0  0  0  0
   -2.7381   -4.5121    0.5978 C   0  0  0  0  0  0  0  0  0  0  0  0
    4.2288    0.3338    1.8899 N   0  0  0  0  0  0  0  0  0  0  0  0
   -4.8860   -3.9384   -0.1301 F   0  0  0  0  0  0  0  0  0  0  0  0
   -2.8615   -5.8163    0.2841 O   0  0  0  0  0  0  0  0  0  0  0  0
    5.6760    0.2286    1.8699 C   0  0  0  0  0  0  0  0  0  0  0  0
    6.3045    1.5637    1.7057 C   0  0  0  0  0  0  0  0  0  0  0  0
    6.4379    2.4846    2.6051 N   0  0  0  0  0  0  0  0  0  0  0  0
    6.7628    1.9387    0.5044 O   0  0  0  0  0  0  0  0  0  0  0  0
    7.0291    3.5652    1.9867 C   0  0  0  0  0  0  0  0  0  0  0  0
    7.2181    3.2031    0.6761 C   0  0  0  0  0  0  0  0  0  0  0  0
    7.8442    3.8525   -0.5032 C   0  0  0  0  0  0  0  0  0  0  0  0
    7.2818    4.8470    2.7273 C   0  0  2  0  0  0  0  0  0  0  0  0
    8.2114    4.6132    3.9171 C   0  0  0  0  0  0  0  0  0  0  0  0
    5.9724    5.4483    3.2355 C   0  0  0  0  0  0  0  0  0  0  0  0
    5.0401    5.8453    2.0920 C   0  0  0  0  0  0  0  0  0  0  0  0
    3.7722    6.4894    2.6505 C   0  0  0  0  0  0  0  0  0  0  0  0
    2.8287    6.9549    1.5425 C   0  0  0  0  0  0  0  0  0  0  0  0
    1.6054    7.6387    2.1511 C   0  0  0  0  0  0  0  0  0  0  0  0
    0.7138    8.1376    0.9916 C   0  0  0  0  0  0  0  0  0  0  0  0
   -0.4618    8.8578    1.6499 C   0  0  0  0  0  0  0  0  0  0  0  0
   -1.3490    9.4197    0.5401 C   0  0  0  0  0  0  0  0  0  0  0  0
   -2.5322   10.0793    1.2469 C   0  0  0  0  0  0  0  0  0  0  0  0
  2  1  2  0
  3  2  1  0
  4  1  1  0
  5  4  2  0
  5  3  1  0
  6  2  1  0
  7  6  1  0
  8  5  1  0
  9  8  2  0
 10  7  1  0
 11 10  2  0
 12 10  1  0
 13 11  1  0
 14 12  2  0
 15 14  1  0
 15 13  2  0
 16  8  1  0
 17 14  1  0
 18 15  1  0
 19 16  1  0
 20 19  1  0
 21 20  2  0
 22 20  1  0
 23 21  1  0
 24 23  2  0
 24 22  1  0
 25 24  1  0
 26 23  1  0
 26 27  1  1
 28 26  1  0
 29 28  1  0
 30 29  1  0
 31 30  1  0
 32 31  1  0
 33 32  1  0
 34 33  1  0
 35 34  1  0
 36 35  1  0
M  END
>  <SMILES>  (11) 
CCCCCCCCCC(C)c1nc(CNC(=O)c2ccc(COc3ccc(O)c(F)c3)o2)oc1C

>  <scaffold>  (11) 
furan

$$$$

     RDKit          3D

 24 25  0  0  0  0  0  0  0  0999 V2000
    0.0000    0.0000   -0.0000 C   0  0  0  0  0  0  0  0  0  0  0  0
    0.0000    0.0000    1.3704 C   0  0  0  0  0  0  0  0  0  0  0  0
    1.2709    0.0000    1.8395 O   0  0  0  0  0  0  0  0  0  0  0  0
    1.3566    0.0000   -0.4137 C   0  0  0  0  0  0  0  0  0  0  0  0
    2.0888    0.0524    0.7342 C   0  0  0  0  0  0  0  0  0  0  0  0
   -1.1524   -0.0000    2.2930 C   0  0  0  0  0  0  0  0  0  0  0  0
   -2.2967    0.0562    1.8880 O   0  0  0  0  0  0  0  0  0  0  0  0
    3.9277    0.1582    1.0389 Br  0  0  0  0  0  0  0  0  0  0  0  0
   -0.7390   -0.0544    3.6067 N   0  0  0  0  0  0  0  0  0  0  0  0
   -1.5092   -0.0174    4.7585 C   0  0  0  0  0  0  0  0  0  0  0  0
   -0.8022   -0.0376    5.8869 N   0  0  0  0  0  0  0  0  0  0  0  0
   -2.8914    0.0859    4.7737 C   0  0  0  0  0  0  0  0  0  0  0  0
   -1.4144    0.0438    7.0241 C   0  0  0  0  0  0  0  0  0  0  0  0
   -3.5418    0.1668    5.9861 C   0  0  0  0  0  0  0  0  0  0  0  0
   -2.7993    0.1537    7.1397 C   0  0  0  0  0  0  0  0  0  0  0  0
   -3.3239    0.2851    8.3904 O   0  0  0  0  0  0  0  0  0  0  0  0
   -4.7148    0.4502    8.5540 C   0  0  0  0  0  0  0  0  0  0  0  0
   -5.0051    0.6303   10.0432 C   0  0  0  0  0  0  0  0  0  0  0  0
   -6.3622    0.7500   10.3392 O   0  0  0  0  0  0  0  0  0  0  0  0
   -6.9739    1.9693    9.9512 C   0  0  0  0  0  0  0  0  0  0  0  0
   -8.2922    2.1026   10.7118 C   0  0  0  0  0  0  0  0  0  0  0  0
   -9.0188    3.3778   10.2873 C   0  0  0  0  0  0  0  0  0  0  0  0
  -10.3508    3.4357   11.0335 C   0  0  0  0  0  0  0  0  0  0  0  0
  -11.1426    4.6689   10.6018 C   0  0  0  0  0  0  0  0  0  0  0  0
  2  1  2  0
  3  2  1  0
  4  1  1  0
  5  4  2  0
  5  3  1  0
  6  2  1  0
  7  6  2  0
  8  5  1  0
  9  6  1  0
 10  9  1  0
 11 10  2  0
 12 10  1  0
 13 11  1  0
 14 12  2  0
 15 14  1  0
 15 13  2  0
 16 15  1  0
 17 16  1  0
 18 17  1  0
 19 18  1  0
 20 19  1  0
 21 20  1  0
 22 21  1  0
 23 22  1  0
 24 23  1  0
M  END
>  <SMILES>  (12) 
CCCCCOCCOc1ccc(NC(=O)c2ccc(Br)o2)nc1

>  <scaffold>  (12) 
furan

$$$$

     RDKit          3D

 26 28  0  0  0  0  0  0  0  0999 V2000
   -0.0000    0.0000   -0.0000 C   0  0  0  0  0  0  0  0  0  0  0  0
   -0.0000    0.0000    1.3782 C   0  0  0  0  0  0  0  0  0  0  0  0
    1.3522    0.0000    1.7786 C   0  0  0  0  0  0  0  0  0  0  0  0
    1.2959   -0.0000   -0.3951 O   0  0  0  0  0  0  0  0  0  0  0  0
    2.1326   -0.0506    0.6495 C   0  0  0  0  0  0  0  0  0  0  0  0
   -1.1263   -0.0000   -0.9018 C   0  0  0  0  0  0  0  0  0  0  0  0
   -2.4522    0.0000   -0.4975 C   0  0  0  0  0  0  0  0  0  0  0  0
   -0.7896   -0.0533   -2.2050 N   0  0  0  0  0  0  0  0  0  0  0  0
   -3.4818   -0.0560   -1.4949 C   0  0  0  0  0  0  0  0  0  0  0  0
   -1.7306   -0.1097   -3.1132 C   0  0  0  0  0  0  0  0  0  0  0  0
   -3.0171   -0.1656   -2.8564 N   0  0  0  0  0  0  0  0  0  0  0  0
   -4.6833   -0.0160   -1.3179 O   0  0  0  0  0  0  0  0  0  0  0  0
   -1.2720   -0.2118   -4.3757 N   0  0  0  0  0  0  0  0  0  0  0  0
   -4.0048   -0.3596   -3.8786 C   0  0  0  0  0  0  0  0  0  0  0  0
   -4.9714    0.6082   -4.1029 C   0  0  0  0  0  0  0  0  0  0  0  0
   -4.0141   -1.5009   -4.6371 C   0  0  0  0  0  0  0  0  0  0  0  0
   -5.9287    0.3559   -5.0618 C   0  0  0  0  0  0  0  0  0  0  0  0
   -4.9718   -1.7531   -5.5956 C   0  0  0  0  0  0  0  0  0  0  0  0
   -5.9096   -0.8096   -5.8410 C   0  0  0  0  0  0  0  0  0  0  0  0
   -6.8732   -0.9213   -6.7866 O   0  0  0  0  0  0  0  0  0  0  0  0
   -6.8396   -1.9157   -7.7974 C   0  0  0  0  0  0  0  0  0  0  0  0
   -5.8185   -1.5668   -8.8791 C   0  0  0  0  0  0  0  0  0  0  0  0
   -6.2835   -0.4173   -9.5336 O   0  0  0  0  0  0  0  0  0  0  0  0
   -5.4421   -0.0216  -10.6046 C   0  0  0  0  0  0  0  0  0  0  0  0
   -4.2007    0.7418  -10.1458 C   0  0  0  0  0  0  0  0  0  0  0  0
   -4.5637    2.0087   -9.3728 C   0  0  0  0  0  0  0  0  0  0  0  0
  2  1  2  0
  3  2  1  0
  4  1  1  0
  5  4  1  0
  5  3  2  0
  6  1  1  0
  7  6  2  0
  8  6  1  0
  9  7  1  0
 10  8  2  0
 11 10  1  0
 11  9  1  0
 12  9  2  0
 13 10  1  0
 14 11  1  0
 15 14  2  0
 16 14  1  0
 17 15  1  0
 18 16  2  0
 19 17  2  0
 19 18  1  0
 20 19  1  0
 21 20  1  0
 22 21  1  0
 23 22  1  0
 24 23  1  0
 25 24  1  0
 26 25  1  0
M  END
>  <SMILES>  (13) 
CCCOCCOc1ccc(-n2c(N)nc(-c3ccco3)cc2=O)cc1

>  <scaffold>  (13) 
furan

$$$$

     RDKit          3D

 30 31  0  0  0  0  0  0  0  0999 V2000
   -0.0000    0.0000    0.0000 C   0  0  0  0  0  0  0  0  0  0  0  0
    0.0000   -0.0000    1.3862 C   0  0  0  0  0  0  0  0  0  0  0  0
    1.3522    0.0000    1.7865 C   0  0  0  0  0  0  0  0  0  0  0  0
    1.2959    0.0000   -0.3951 O   0  0  0  0  0  0  0  0  0  0  0  0
    2.1326    0.0506    0.6495 C   0  0  0  0  0  0  0  0  0  0  0  0
   -1.1008   -0.0000   -0.8814 C   0  0  0  0  0  0  0  0  0  0  0  0
   -0.9732    0.0528   -2.2291 C   0  0  0  0  0  0  0  0  0  0  0  0
   -2.0676    0.0996   -3.0394 N   0  0  0  0  0  0  0  0  0  0  0  0
   -2.0684    0.1016   -4.4416 C   0  0  0  0  0  0  0  0  0  0  0  0
   -3.1313    0.1945   -5.0084 O   0  0  0  0  0  0  0  0  0  0  0  0
   -0.8933   -0.0067   -5.0911 N   0  0  0  0  0  0  0  0  0  0  0  0
   -0.6770    0.0323   -6.5171 C   0  0  0  0  0  0  0  0  0  0  0  0
    0.1905    1.1635   -6.9325 C   0  0  0  0  0  0  0  0  0  0  0  0
    1.4253    1.2459   -6.5802 N   0  0  0  0  0  0  0  0  0  0  0  0
   -0.4126    2.5040   -7.8690 S   0  0  0  0  0  0  0  0  0  0  0  0
    1.9792    2.3927   -7.0422 C   0  0  0  0  0  0  0  0  0  0  0  0
    1.1771    3.2625   -7.7927 C   0  0  0  0  0  0  0  0  0  0  0  0
    1.4414    4.5670   -8.3707 C   0  0  0  0  0  0  0  0  0  0  0  0
    2.5031    5.1395   -8.3024 O   0  0  0  0  0  0  0  0  0  0  0  0
    0.3168    5.0345   -8.9278 O   0  0  0  0  0  0  0  0  0  0  0  0
    3.3833    2.6362   -6.6568 C   0  0  0  0  0  0  0  0  0  0  0  0
    0.4336    6.3422   -9.4855 C   0  0  0  0  0  0  0  0  0  0  0  0
    0.2762    7.4214   -8.4154 C   0  0  0  0  0  0  0  0  0  0  0  0
    0.3386    8.8351   -8.9678 C   0  0  1  0  0  0  0  0  0  0  0  0
   -0.6292    9.0567   -9.9010 F   0  0  0  0  0  0  0  0  0  0  0  0
    0.2409    9.9524   -7.9303 C   0  0  0  0  0  0  0  0  0  0  0  0
    0.3634   11.3520   -8.5307 C   0  0  0  0  0  0  0  0  0  0  0  0
    0.3268   12.5036   -7.5274 C   0  0  0  0  0  0  0  0  0  0  0  0
    0.5075   13.8768   -8.1724 C   0  0  0  0  0  0  0  0  0  0  0  0
    0.5333   15.0589   -7.2047 C   0  0  0  0  0  0  0  0  0  0  0  0
  2  1  2  0
  3  2  1  0
  4  1  1  0
  5  4  1  0
  5  3  2  0
  6  1  1  0
  7  6  2  0
  8  7  1  0
  9  8  1  0
 10  9  2  0
 11  9  1  0
 12 11  1  0
 13 12  1  0
 14 13  1  0
 15 13  2  0
 16 14  2  0
 17 16  1  0
 17 15  1  0
 18 17  2  0
 19 18  1  0
 20 18  1  0
 21 16  1  0
 22 20  1  0
 23 22  1  0
 24 23  1  0
 24 25  1  6
 26 24  1  0
 27 26  1  0
 28 27  1  0
 29 28  1  0
 30 29  1  0
M  CHG  2  15   1  19  -1
M  END
>  <SMILES>  (14) 
CCCCCC(F)CCOC([O-])=C1[S+]=C(CNC(=O)NC=Cc2ccco2)N=C1C

>  <scaffold>  (14) 
furan

$$$$

     RDKit          3D

 24 25  0  0  0  0  0  0  0  0999 V2000
    0.0000   -0.0000    0.0000 C   0  0  0  0  0  0  0  0  0  0  0  0
    0.0000   -0.0000    1.3625 C   0  0  0  0  0  0  0  0  0  0  0  0
    1.2565   -0.0000    1.8264 O   0  0  0  0  0  0  0  0  0  0  0  0
    1.3566    0.0000   -0.4137 C   0  0  0  0  0  0  0  0  0  0  0  0
    2.0888   -0.0524    0.7342 C   0  0  0  0  0  0  0  0  0  0  0  0
    3.5526   -0.0210    0.9810 C   0  0  0  0  0  0  0  0  0  0  0  0
    3.8445    0.6628    2.2175 N   0  0  0  0  0  0  0  0  0  0  0  0
    4.5300    0.1301    3.2273 C   0  0  0  0  0  0  0  0  0  0  0  0
    5.2317   -1.3483    3.2426 S   0  0  0  0  0  0  0  0  0  0  0  0
    4.6622    0.9301    4.3613 N   0  0  0  0  0  0  0  0  0  0  0  0
    4.1433    2.1554    4.6156 C   0  0  0  0  0  0  0  0  0  0  0  0
    3.4386    2.7682    3.8273 O   0  0  0  0  0  0  0  0  0  0  0  0
    4.4553    2.7140    6.0127 C   0  0  2  0  0  0  0  0  0  0  0  0
    5.3946    1.9953    6.7507 O   0  0  0  0  0  0  0  0  0  0  0  0
    3.1522    2.8435    6.7998 C   0  0  0  0  0  0  0  0  0  0  0  0
    3.0191    2.2942    8.0655 C   0  0  0  0  0  0  0  0  0  0  0  0
    2.0983    3.5417    6.2507 C   0  0  0  0  0  0  0  0  0  0  0  0
    1.8414    2.4790    8.7572 C   0  0  0  0  0  0  0  0  0  0  0  0
    0.9078    3.7289    6.9516 C   0  0  0  0  0  0  0  0  0  0  0  0
    0.7567    3.1962    8.2547 C   0  0  0  0  0  0  0  0  0  0  0  0
   -0.3225    3.3528    9.0454 O   0  0  0  0  0  0  0  0  0  0  0  0
   -1.4235    4.1130    8.6000 C   0  0  0  0  0  0  0  0  0  0  0  0
   -2.4644    4.1675    9.7172 C   0  0  0  0  0  0  0  0  0  0  0  0
   -3.0554    2.7988   10.0514 C   0  0  0  0  0  0  0  0  0  0  0  0
  2  1  2  0
  3  2  1  0
  4  1  1  0
  5  4  2  0
  5  3  1  0
  6  5  1  0
  7  6  1  0
  8  7  1  0
  9  8  2  0
 10  8  1  0
 11 10  1  0
 12 11  2  0
 13 11  1  0
 13 14  1  1
 15 13  1  0
 16 15  2  0
 17 15  1  0
 18 16  1  0
 19 17  2  0
 20 19  1  0
 20 18  2  0
 21 20  1  0
 22 21  1  0
 23 22  1  0
 24 23  1  0
M  END
>  <SMILES>  (15) 
CCCOc1ccc(C(O)C(=O)NC(=S)NCc2ccco2)cc1

>  <scaffold>  (15) 
furan

$$$$

     RDKit          3D

 20 22  0  0  0  0  0  0  0  0999 V2000
   -0.0000   -0.0000   -0.0000 C   0  0  0  0  0  0  0  0  0  0  0  0
    0.0000   -0.0000    1.3704 C   0  0  0  0  0  0  0  0  0  0  0  0
    1.3522   -0.0000    1.7707 C   0  0  0  0  0  0  0  0  0  0  0  0
    1.2559   -0.0000   -0.5080 O   0  0  0  0  0  0  0  0  0  0  0  0
    2.0926    0.0506    0.5366 C   0  0  0  0  0  0  0  0  0  0  0  0
   -1.1328   -0.0000   -0.9070 C   0  0  0  0  0  0  0  0  0  0  0  0
   -2.3532   -0.0000   -0.4133 N   0  0  0  0  0  0  0  0  0  0  0  0
   -0.9249    0.0557   -2.3006 C   0  0  0  0  0  0  0  0  0  0  0  0
   -3.4033    0.0472   -1.1935 N   0  0  0  0  0  0  0  0  0  0  0  0
   -2.0382    0.1034   -3.1250 C   0  0  0  0  0  0  0  0  0  0  0  0
   -3.2830    0.0964   -2.4960 C   0  0  0  0  0  0  0  0  0  0  0  0
   -4.7533    0.3279   -3.4967 S   0  0  0  0  0  6  0  0  0  0  0  0
   -4.7162    1.6034   -4.1702 O   0  0  0  0  0  0  0  0  0  0  0  0
   -4.9484   -0.8307   -4.3484 O   0  0  0  0  0  0  0  0  0  0  0  0
   -6.0501    0.3624   -2.2880 C   0  0  0  0  0  0  0  0  0  0  0  0
   -6.6617   -0.7975   -1.8637 C   0  0  0  0  0  0  0  0  0  0  0  0
   -6.4302    1.5675   -1.7577 C   0  0  0  0  0  0  0  0  0  0  0  0
   -7.6310   -0.7258   -0.8865 C   0  0  0  0  0  0  0  0  0  0  0  0
   -7.4101    1.6391   -0.7687 C   0  0  0  0  0  0  0  0  0  0  0  0
   -7.9528    0.4913   -0.2875 C   0  0  0  0  0  0  0  0  0  0  0  0
  2  1  2  0
  3  2  1  0
  4  1  1  0
  5  4  1  0
  5  3  2  0
  6  1  1  0
  7  6  2  0
  8  6  1  0
  9  7  1  0
 10  8  2  0
 11 10  1  0
 11  9  2  0
 12 11  1  0
 13 12  2  0
 14 12  2  0
 15 12  1  0
 16 15  2  0
 17 15  1  0
 18 16  1  0
 19 17  2  0
 20 19  1  0
 20 18  2  0
M  END
>  <SMILES>  (16) 
O=S(=O)(c1ccccc1)c1ccc(-c2ccco2)nn1

>  <scaffold>  (16) 
furan

$$$$

     RDKit          3D

 30 31  0  0  0  0  0  0  0  0999 V2000
    0.0000    0.0000    0.0000 C   0  0  0  0  0  0  0  0  0  0  0  0
    0.0000   -0.0000    1.3704 C   0  0  0  0  0  0  0  0  0  0  0  0
    1.3522   -0.0000    1.7707 C   0  0  0  0  0  0  0  0  0  0  0  0
    1.2559   -0.0000   -0.5080 O   0  0  0  0  0  0  0  0  0  0  0  0
    2.0926    0.0506    0.5366 C   0  0  0  0  0  0  0  0  0  0  0  0
   -1.1524    0.0000   -0.9227 C   0  0  0  0  0  0  0  0  0  0  0  0
   -2.3015   -0.0000   -0.5723 O   0  0  0  0  0  0  0  0  0  0  0  0
   -0.7437   -0.0538   -2.2213 N   0  0  0  0  0  0  0  0  0  0  0  0
   -1.6655   -0.1157   -3.2122 N   0  0  0  0  0  0  0  0  0  0  0  0
   -1.2399   -0.2104   -4.4072 C   0  0  0  0  0  0  0  0  0  0  0  0
   -2.1775   -0.3306   -5.4863 C   0  0  0  0  0  0  0  0  0  0  0  0
   -3.5585   -0.3501   -5.2964 C   0  0  0  0  0  0  0  0  0  0  0  0
   -1.6685   -0.3811   -6.7746 C   0  0  0  0  0  0  0  0  0  0  0  0
   -4.4999   -0.5140   -6.3007 C   0  0  0  0  0  0  0  0  0  0  0  0
   -2.6139   -0.4474   -7.7861 C   0  0  0  0  0  0  0  0  0  0  0  0
   -3.9687   -0.6086   -7.5948 C   0  0  0  0  0  0  0  0  0  0  0  0
   -5.8502   -0.6024   -6.2355 O   0  0  0  0  0  0  0  0  0  0  0  0
   -6.3271   -0.5069   -4.9118 C   0  0  0  0  0  0  0  0  0  0  0  0
   -7.8266   -0.6950   -5.1365 C   0  0  0  0  0  0  0  0  0  0  0  0
   -8.4001   -0.5448   -3.7284 C   0  0  0  0  0  0  0  0  0  0  0  0
   -9.8831   -0.7940   -3.9986 C   0  0  0  0  0  0  0  0  0  0  0  0
  -10.4128   -0.5799   -2.5815 C   0  0  0  0  0  0  0  0  0  0  0  0
  -11.8981   -0.8732   -2.7875 C   0  0  0  0  0  0  0  0  0  0  0  0
  -12.3672   -0.7004   -1.3438 C   0  0  0  0  0  0  0  0  0  0  0  0
  -13.8418   -1.0370   -1.4854 C   0  0  0  0  0  0  0  0  0  0  0  0
  -14.3505   -0.9310   -0.0486 C   0  0  0  0  0  0  0  0  0  0  0  0
  -15.8278   -1.2208   -0.2520 C   0  0  0  0  0  0  0  0  0  0  0  0
  -16.3773   -1.1802    1.1730 C   0  0  0  0  0  0  0  0  0  0  0  0
  -17.8628   -1.4211    0.9090 C   0  0  0  0  0  0  0  0  0  0  0  0
  -18.4704   -1.3353    2.3082 C   0  0  0  0  0  0  0  0  0  0  0  0
  2  1  2  0
  3  2  1  0
  4  1  1  0
  5  4  1  0
  5  3  2  0
  6  1  1  0
  7  6  2  0
  8  6  1  0
  9  8  1  0
 10  9  2  0
 11 10  1  0
 12 11  2  0
 13 11  1  0
 14 12  1  0
 15 13  2  0
 16 15  1  0
 16 14  2  0
 17 14  1  0
 18 17  1  0
 19 18  1  0
 20 19  1  0
 21 20  1  0
 22 21  1  0
 23 22  1  0
 24 23  1  0
 25 24  1  0
 26 25  1  0
 27 26  1  0
 28 27  1  0
 29 28  1  0
 30 29  1  0
M  END
>  <SMILES>  (17) 
CCCCCCCCCCCCCOc1cccc(C=NNC(=O)c2ccco2)c1

>  <scaffold>  (17) 
furan

$$$$

     RDKit          3D

 26 28  0  0  0  0  0  0  0  0999 V2000
   -0.0000    0.0000   -0.0000 C   0  0  0  0  0  0  0  0  0  0  0  0
    0.0000    0.0000    1.3625 C   0  0  0  0  0  0  0  0  0  0  0  0
    1.2487    0.0000    1.8470 O   0  0  0  0  0  0  0  0  0  0  0  0
    1.3489   -0.0000   -0.4113 C   0  0  0  0  0  0  0  0  0  0  0  0
    2.0853   -0.0527    0.7432 C   0  0  0  0  0  0  0  0  0  0  0  0
    3.5335   -0.1330    0.9056 C   0  0  0  0  0  0  0  0  0  0  0  0
    4.3212   -0.1654   -0.0191 O   0  0  0  0  0  0  0  0  0  0  0  0
    3.9499   -0.2235    2.1916 N   0  0  0  0  0  0  0  0  0  0  0  0
    5.3084   -0.3603    2.4732 N   0  0  0  0  0  0  0  0  0  0  0  0
    5.6475   -1.1788    3.5290 C   0  0  0  0  0  0  0  0  0  0  0  0
    4.8623   -1.6121    4.3489 O   0  0  0  0  0  0  0  0  0  0  0  0
    6.9927   -1.3948    3.5392 N   0  0  0  0  0  0  0  0  0  0  0  0
    7.6542   -2.0597    4.5923 C   0  0  0  0  0  0  0  0  0  0  0  0
    7.1159   -3.1984    5.1711 C   0  0  0  0  0  0  0  0  0  0  0  0
    8.8793   -1.5547    5.0256 C   0  0  0  0  0  0  0  0  0  0  0  0
    7.8264   -3.8457    6.1699 C   0  0  0  0  0  0  0  0  0  0  0  0
    9.5855   -2.1994    6.0182 C   0  0  0  0  0  0  0  0  0  0  0  0
    9.0838   -3.4030    6.5502 C   0  0  0  0  0  0  0  0  0  0  0  0
    9.8015   -4.1185    7.6935 C   0  0  2  0  0  0  0  0  0  0  0  0
    9.8976   -5.5118    7.4984 O   0  0  0  0  0  0  0  0  0  0  0  0
    9.0944   -3.8479    9.0206 C   0  0  0  0  0  0  0  0  0  0  0  0
    8.8459   -2.5249    9.3834 C   0  0  0  0  0  0  0  0  0  0  0  0
    8.5692   -4.8651    9.7881 C   0  0  0  0  0  0  0  0  0  0  0  0
    8.1633   -2.2325   10.5539 C   0  0  0  0  0  0  0  0  0  0  0  0
    7.8890   -4.5648   10.9673 C   0  0  0  0  0  0  0  0  0  0  0  0
    7.6764   -3.2687   11.3354 C   0  0  0  0  0  0  0  0  0  0  0  0
  2  1  2  0
  3  2  1  0
  4  1  1  0
  5  4  2  0
  5  3  1  0
  6  5  1  0
  7  6  2  0
  8  6  1  0
  9  8  1  0
 10  9  1  0
 11 10  2  0
 12 10  1  0
 13 12  1  0
 14 13  2  0
 15 13  1  0
 16 14  1  0
 17 15  2  0
 18 17  1  0
 18 16  2  0
 19 18  1  0
 19 20  1  6
 21 19  1  0
 22 21  2  0
 23 21  1  0
 24 22  1  0
 25 23  2  0
 26 24  2  0
 26 25  1  0
M  END
>  <SMILES>  (18) 
O=C(NNC(=O)c1ccco1)Nc1ccc(C(O)c2ccccc2)cc1

>  <scaffold>  (18) 
furan

$$$$

     RDKit          3D

 28 30  0  0  0  0  0  0  0  0999 V2000
    0.0000   -0.0000    0.0000 C   0  0  0  0  0  0  0  0  0  0  0  0
   -0.0000   -0.0000    1.3625 C   0  0  0  0  0  0  0  0  0  0  0  0
    1.3599    0.0000    1.7652 C   0  0  0  0  0  0  0  0  0  0  0  0
    1.2757   -0.0627   -0.4516 O   0  0  0  0  0  0  0  0  0  0  0  0
    2.1187   -0.0531    0.5990 C   0  0  0  0  0  0  0  0  0  0  0  0
   -1.1053   -0.0543   -0.9898 C   0  0  0  0  0  0  0  0  0  0  0  0
   -2.2939    0.5078   -0.4580 N   0  0  0  0  0  0  0  0  0  0  0  0
   -3.3882   -0.2192   -0.1275 C   0  0  0  0  0  0  0  0  0  0  0  0
   -3.5071   -1.4074   -0.3526 O   0  0  0  0  0  0  0  0  0  0  0  0
   -4.4555    0.5744    0.5700 C   0  0  0  0  0  0  0  0  0  0  0  0
   -4.1775    1.8340    0.8691 N   0  0  0  0  0  0  0  0  0  0  0  0
   -5.7221    0.0682    0.8582 C   0  0  0  0  0  0  0  0  0  0  0  0
   -5.0712    2.5570    1.5262 C   0  0  0  0  0  0  0  0  0  0  0  0
   -6.6583    0.8225    1.5483 C   0  0  0  0  0  0  0  0  0  0  0  0
   -6.3107    2.0630    1.9300 C   0  0  0  0  0  0  0  0  0  0  0  0
   -7.4602    3.0786    2.8793 S   0  0  0  0  0  6  0  0  0  0  0  0
   -8.7155    3.1322    2.1870 O   0  0  0  0  0  0  0  0  0  0  0  0
   -6.9254    4.3887    3.2010 O   0  0  0  0  0  0  0  0  0  0  0  0
   -7.6064    2.1850    4.4156 C   0  0  0  0  0  0  0  0  0  0  0  0
   -6.5266    2.0376    5.2334 C   0  0  0  0  0  0  0  0  0  0  0  0
   -8.8099    1.6053    4.7857 C   0  0  0  0  0  0  0  0  0  0  0  0
   -6.5797    1.3098    6.4120 C   0  0  0  0  0  0  0  0  0  0  0  0
   -8.8621    0.8787    5.9650 C   0  0  0  0  0  0  0  0  0  0  0  0
   -7.7723    0.6726    6.7170 C   0  0  0  0  0  0  0  0  0  0  0  0
   -7.9305   -0.1183    7.8249 O   0  0  0  0  0  0  0  0  0  0  0  0
   -7.0529   -0.0599    8.9478 C   0  0  0  0  0  0  0  0  0  0  0  0
   -7.2460    1.2219    9.7565 C   0  0  0  0  0  0  0  0  0  0  0  0
   -6.3292    1.2103   10.9678 C   0  0  0  0  0  0  0  0  0  0  0  0
  2  1  2  0
  3  2  1  0
  4  1  1  0
  5  4  1  0
  5  3  2  0
  6  1  1  0
  7  6  1  0
  8  7  1  0
  9  8  2  0
 10  8  1  0
 11 10  2  0
 12 10  1  0
 13 11  1  0
 14 12  2  0
 15 14  1  0
 15 13  2  0
 16 15  1  0
 17 16  2  0
 18 16  2  0
 19 16  1  0
 20 19  2  0
 21 19  1  0
 22 20  1  0
 23 21  2  0
 24 23  1  0
 24 22  2  0
 25 24  1  0
 26 25  1  0
 27 26  1  0
 28 27  1  0
M  END
>  <SMILES>  (19) 
CCCOc1ccc(S(=O)(=O)c2ccc(C(=O)NCc3ccco3)nc2)cc1

>  <scaffold>  (19) 
furan

$$$$

     RDKit          3D

 20 21  0  0  0  0  0  0  0  0999 V2000
    0.0000   -0.0000   -0.0000 C   0  0  0  0  0  0  0  0  0  0  0  0
    0.0000    0.0000    1.3625 C   0  0  0  0  0  0  0  0  0  0  0  0
    1.2637   -0.0000    1.8290 O   0  0  0  0  0  0  0  0  0  0  0  0
    1.3566   -0.0000   -0.4137 C   0  0  0  0  0  0  0  0  0  0  0  0
    2.0888    0.0524    0.7342 C   0  0  0  0  0  0  0  0  0  0  0  0
   -1.1724    0.0000    2.3012 C   0  0  0  0  0  0  0  0  0  0  0  0
    3.8154    0.1518    1.0203 S   0  0  0  0  0  0  0  0  0  0  0  0
   -2.3794   -0.4319    1.7136 O   0  0  0  0  0  0  0  0  0  0  0  0
   -2.4475   -1.7243    1.2631 C   0  0  0  0  0  0  0  0  0  0  0  0
   -3.6261   -2.0649    0.5679 C   0  0  0  0  0  0  0  0  0  0  0  0
   -1.4676   -2.6642    1.4485 C   0  0  0  0  0  0  0  0  0  0  0  0
   -3.8321   -3.3345    0.1180 C   0  0  0  0  0  0  0  0  0  0  0  0
   -1.6796   -3.9705    0.9854 C   0  0  0  0  0  0  0  0  0  0  0  0
   -2.8955   -4.3467    0.3223 C   0  0  0  0  0  0  0  0  0  0  0  0
   -3.1572   -5.5698   -0.0886 O   0  0  0  0  0  0  0  0  0  0  0  0
   -0.3811   -5.0994    1.1929 Cl  0  0  0  0  0  0  0  0  0  0  0  0
    3.8447   -0.0368    2.8245 C   0  0  0  0  0  0  0  0  0  0  0  0
    3.1950   -1.3367    3.2962 C   0  0  0  0  0  0  0  0  0  0  0  0
    2.5661   -1.3593    4.3275 O   0  0  0  0  0  0  0  0  0  0  0  0
    3.4731   -2.3968    2.4997 N   0  0  0  0  0  0  0  0  0  0  0  0
  2  1  2  0
  3  2  1  0
  4  1  1  0
  5  4  2  0
  5  3  1  0
  6  2  1  0
  7  5  1  0
  8  6  1  0
  9  8  1  0
 10  9  2  0
 11  9  1  0
 12 10  1  0
 13 11  2  0
 14 13  1  0
 14 12  2  0
 15 14  1  0
 16 13  1  0
 17  7  1  0
 18 17  1  0
 19 18  2  0
 20 18  1  0
M  END
>  <SMILES>  (20) 
NC(=O)CSc1ccc(COc2ccc(O)c(Cl)c2)o1

>  <scaffold>  (20) 
furan

$$$$

     RDKit          3D

 27 28  0  0  0  0  0  0  0  0999 V2000
    0.0000    0.0000   -0.0000 C   0  0  0  0  0  0  0  0  0  0  0  0
   -0.0000    0.0000    1.3625 C   0  0  0  0  0  0  0  0  0  0  0  0
    1.3599   -0.0000    1.7652 C   0  0  0  0  0  0  0  0  0  0  0  0
    1.2559   -0.0000   -0.5080 O   0  0  0  0  0  0  0  0  0  0  0  0
    2.0974   -0.0509    0.5426 C   0  0  0  0  0  0  0  0  0  0  0  0
   -1.1590   -0.0000   -0.9280 C   0  0  0  0  0  0  0  0  0  0  0  0
   -1.3526    1.3049   -1.5326 N   0  0  0  0  0  0  0  0  0  0  0  0
   -2.4338    2.0605   -1.2597 C   0  0  0  0  0  0  0  0  0  0  0  0
   -3.3877    1.7205   -0.6008 O   0  0  0  0  0  0  0  0  0  0  0  0
   -2.4135    3.3018   -1.8940 N   0  0  0  0  0  0  0  0  0  0  0  0
   -1.4297    3.7120   -2.6923 N   0  0  0  0  0  0  0  0  0  0  0  0
   -1.4298    4.8717   -3.2150 C   0  0  0  0  0  0  0  0  0  0  0  0
   -0.3634    5.3800   -4.0434 C   0  0  0  0  0  0  0  0  0  0  0  0
   -0.4305    6.6259   -4.6287 C   0  0  0  0  0  0  0  0  0  0  0  0
    0.7961    4.6065   -4.1957 C   0  0  0  0  0  0  0  0  0  0  0  0
    0.5945    7.1792   -5.3948 C   0  0  0  0  0  0  0  0  0  0  0  0
    1.7952    5.1484   -4.9472 C   0  0  0  0  0  0  0  0  0  0  0  0
    1.7515    6.4235   -5.5039 C   0  0  0  0  0  0  0  0  0  0  0  0
    2.8344    6.8796   -6.1782 O   0  0  0  0  0  0  0  0  0  0  0  0
    2.8674    8.1147   -6.8745 C   0  0  0  0  0  0  0  0  0  0  0  0
    2.0907    8.0191   -8.1867 C   0  0  0  0  0  0  0  0  0  0  0  0
    1.9048    9.3750   -8.8659 C   0  0  1  0  0  0  0  0  0  0  0  0
    3.2542    9.9181   -9.3336 C   0  0  0  0  0  0  0  0  0  0  0  0
    0.9391    9.2506  -10.0433 C   0  0  0  0  0  0  0  0  0  0  0  0
    0.6063   10.6034  -10.6705 C   0  0  0  0  0  0  0  0  0  0  0  0
   -0.4139   10.4279  -11.8181 C   0  0  0  0  0  0  0  0  0  0  0  0
   -1.6198    9.8637  -11.4045 O   0  0  0  0  0  0  0  0  0  0  0  0
  2  1  2  0
  3  2  1  0
  4  1  1  0
  5  4  1  0
  5  3  2  0
  6  1  1  0
  7  6  1  0
  8  7  1  0
  9  8  2  0
 10  8  1  0
 11 10  1  0
 12 11  2  0
 13 12  1  0
 14 13  2  0
 15 13  1  0
 16 14  1  0
 17 15  2  0
 18 17  1  0
 18 16  2  0
 19 18  1  0
 20 19  1  0
 21 20  1  0
 22 21  1  0
 22 23  1  6
 24 22  1  0
 25 24  1  0
 26 25  1  0
 27 26  1  0
M  END
>  <SMILES>  (21) 
CC(CCCO)CCOc1ccc(C=NNC(=O)NCc2ccco2)cc1

>  <scaffold>  (21) 
furan

$$$$

     RDKit          3D

 28 30  0  0  0  0  0  0  0  0999 V2000
    0.0000   -0.0000    0.0000 C   0  0  0  0  0  0  0  0  0  0  0  0
    0.0000    0.0000    1.3625 C   0  0  0  0  0  0  0  0  0  0  0  0
    1.2487    0.0000    1.8470 O   0  0  0  0  0  0  0  0  0  0  0  0
    1.3489   -0.0000   -0.4113 C   0  0  0  0  0  0  0  0  0  0  0  0
    2.0853   -0.0527    0.7432 C   0  0  0  0  0  0  0  0  0  0  0  0
    3.5769   -0.0177    0.9148 C   0  0  0  0  0  0  0  0  0  0  0  0
    4.3023   -0.6084   -0.1297 O   0  0  0  0  0  0  0  0  0  0  0  0
    4.1774   -1.9734   -0.2737 C   0  0  0  0  0  0  0  0  0  0  0  0
    4.8768   -2.5080   -1.3547 C   0  0  0  0  0  0  0  0  0  0  0  0
    3.3998   -2.8152    0.5202 C   0  0  0  0  0  0  0  0  0  0  0  0
    4.8724   -3.8848   -1.5735 C   0  0  0  0  0  0  0  0  0  0  0  0
    3.3983   -4.1850    0.3075 C   0  0  0  0  0  0  0  0  0  0  0  0
    4.2222   -4.7262   -0.6843 C   0  0  0  0  0  0  0  0  0  0  0  0
    4.2354   -6.4197   -0.8674 Cl  0  0  0  0  0  0  0  0  0  0  0  0
    2.7251   -5.1103    1.0471 O   0  0  0  0  0  0  0  0  0  0  0  0
    1.9040   -4.6835    2.0898 C   0  0  0  0  0  0  0  0  0  0  0  0
    0.6460   -3.9495    1.6284 C   0  0  0  0  0  0  0  0  0  0  0  0
    0.0131   -3.2029    2.3367 O   0  0  0  0  0  0  0  0  0  0  0  0
    0.2451   -4.2111    0.3692 N   0  0  0  0  0  0  0  0  0  0  0  0
   -0.9539   -3.6611   -0.2355 C   0  0  0  0  0  0  0  0  0  0  0  0
   -2.0002   -4.6966   -0.4861 C   0  0  0  0  0  0  0  0  0  0  0  0
   -3.1272   -5.0700    0.1825 C   0  0  0  0  0  0  0  0  0  0  0  0
   -1.8443   -5.5238   -1.5476 O   0  0  0  0  0  0  0  0  0  0  0  0
   -3.6831   -6.1564   -0.5242 C   0  0  0  0  0  0  0  0  0  0  0  0
   -2.8900   -6.3970   -1.5233 C   0  0  0  0  0  0  0  0  0  0  0  0
   -3.0009   -7.3857   -2.6140 C   0  0  0  0  0  0  0  0  0  0  0  0
   -3.5482   -6.7659   -3.8988 C   0  0  0  0  0  0  0  0  0  0  0  0
   -3.7327   -7.7549   -5.0370 C   0  0  0  0  0  0  0  0  0  0  0  0
  2  1  2  0
  3  2  1  0
  4  1  1  0
  5  4  2  0
  5  3  1  0
  6  5  1  0
  7  6  1  0
  8  7  1  0
  9  8  2  0
 10  8  1  0
 11  9  1  0
 12 10  2  0
 13 12  1  0
 13 11  2  0
 14 13  1  0
 15 12  1  0
 16 15  1  0
 17 16  1  0
 18 17  2  0
 19 17  1  0
 20 19  1  0
 21 20  1  0
 22 21  2  0
 23 21  1  0
 24 22  1  0
 25 24  2  0
 25 23  1  0
 26 25  1  0
 27 26  1  0
 28 27  1  0
M  END
>  <SMILES>  (22) 
CCCc1ccc(CNC(=O)COc2cc(OCc3ccco3)ccc2Cl)o1

>  <scaffold>  (22) 
furan

$$$$

     RDKit          3D

 26 28  0  0  0  0  0  0  0  0999 V2000
    0.0000    0.0000    0.0000 C   0  0  0  0  0  0  0  0  0  0  0  0
   -0.0000   -0.0000    1.3704 C   0  0  0  0  0  0  0  0  0  0  0  0
    1.3664    0.0000    1.7506 C   0  0  0  0  0  0  0  0  0  0  0  0
    1.2631    0.0000   -0.5110 O   0  0  0  0  0  0  0  0  0  0  0  0
    2.1094    0.0512    0.5457 C   0  0  0  0  0  0  0  0  0  0  0  0
    3.4852    0.1244    0.5057 C   0  0  0  0  0  0  0  0  0  0  0  0
    4.1209    0.1103    1.7374 C   0  0  0  0  0  0  0  0  0  0  0  0
    3.4075    0.0278    2.9230 C   0  0  0  0  0  0  0  0  0  0  0  0
    2.0468   -0.0430    2.9218 C   0  0  0  0  0  0  0  0  0  0  0  0
   -1.0576   -0.0000   -0.8467 N   0  0  0  0  0  0  0  0  0  0  0  0
   -2.4220    0.0000   -0.4307 C   0  0  0  0  0  0  0  0  0  0  0  0
   -3.3371    0.0605   -1.6526 C   0  0  0  0  0  0  0  0  0  0  0  0
   -4.5374    0.1160   -1.4717 O   0  0  0  0  0  0  0  0  0  0  0  0
   -2.8411    0.1045   -2.8960 N   0  0  0  0  0  0  0  0  0  0  0  0
   -3.5242    0.2209   -4.1615 C   0  0  0  0  0  0  0  0  0  0  0  0
   -3.2636    1.5018   -4.8835 C   0  0  0  0  0  0  0  0  0  0  0  0
   -3.7355    2.7572   -4.6428 C   0  0  0  0  0  0  0  0  0  0  0  0
   -2.2750    1.5394   -5.7977 O   0  0  0  0  0  0  0  0  0  0  0  0
   -3.0884    3.5554   -5.6320 C   0  0  0  0  0  0  0  0  0  0  0  0
   -2.2087    2.8098   -6.2635 C   0  0  0  0  0  0  0  0  0  0  0  0
   -1.2322    3.1246   -7.3368 C   0  0  0  0  0  0  0  0  0  0  0  0
   -3.2797    5.0161   -5.8763 C   0  0  0  0  0  0  0  0  0  0  0  0
   -4.4198    5.2806   -6.6629 O   0  0  0  0  0  0  0  0  0  0  0  0
   -4.2524    4.8971   -8.0096 C   0  0  0  0  0  0  0  0  0  0  0  0
   -5.4575    5.3352   -8.8403 C   0  0  0  0  0  0  0  0  0  0  0  0
   -6.7756    4.7267   -8.3643 C   0  0  0  0  0  0  0  0  0  0  0  0
  2  1  2  0
  3  2  1  0
  4  1  1  0
  5  4  1  0
  5  3  2  0
  6  5  1  0
  7  6  2  0
  8  7  1  0
  9  8  2  0
  9  3  1  0
 10  1  1  0
 11 10  1  0
 12 11  1  0
 13 12  2  0
 14 12  1  0
 15 14  1  0
 16 15  1  0
 17 16  2  0
 18 16  1  0
 19 17  1  0
 20 19  2  0
 20 18  1  0
 21 20  1  0
 22 19  1  0
 23 22  1  0
 24 23  1  0
 25 24  1  0
 26 25  1  0
M  END
>  <SMILES>  (23) 
CCCOCc1cc(CNC(=O)CNc2cc3ccccc3o2)oc1C

>  <scaffold>  (23) 
furan

$$$$

     RDKit          3D

 26 28  0  0  0  0  0  0  0  0999 V2000
    0.0000    0.0000   -0.0000 C   0  0  0  0  0  0  0  0  0  0  0  0
    0.0000   -0.0000    1.3625 C   0  0  0  0  0  0  0  0  0  0  0  0
    1.2487   -0.0000    1.8470 O   0  0  0  0  0  0  0  0  0  0  0  0
    1.3489    0.0000   -0.4113 C   0  0  0  0  0  0  0  0  0  0  0  0
    2.0853    0.0527    0.7432 C   0  0  0  0  0  0  0  0  0  0  0  0
    3.5064    0.1345    0.9787 C   0  0  0  0  0  0  0  0  0  0  0  0
    4.2813    0.1669   -0.1133 N   0  0  0  0  0  0  0  0  0  0  0  0
    4.0803    0.1238    2.2579 C   0  0  0  0  0  0  0  0  0  0  0  0
    5.5889    0.2895    0.0549 C   0  0  0  0  0  0  0  0  0  0  0  0
    5.4253    0.2523    2.4334 C   0  0  0  0  0  0  0  0  0  0  0  0
    6.2239    0.3881    1.2921 C   0  0  0  0  0  0  0  0  0  0  0  0
    7.5336    0.5683    1.5881 O   0  0  0  0  0  0  0  0  0  0  0  0
    8.4063    0.6111    0.4709 C   0  0  0  0  0  0  0  0  0  0  0  0
    8.7228   -0.7764   -0.0850 C   0  0  0  0  0  0  0  0  0  0  0  0
    9.7256   -1.5893    0.7486 C   0  0  0  0  0  0  0  0  0  0  0  0
    9.2369   -1.7804    2.1375 C   0  0  0  0  0  0  0  0  0  0  0  0
    8.2230   -2.5735    2.5839 C   0  0  0  0  0  0  0  0  0  0  0  0
    9.8666   -1.1407    3.1419 O   0  0  0  0  0  0  0  0  0  0  0  0
    8.1494   -2.3387    3.9643 C   0  0  0  0  0  0  0  0  0  0  0  0
    9.2040   -1.4350    4.2863 C   0  0  0  0  0  0  0  0  0  0  0  0
    9.6542   -0.8090    5.5551 C   0  0  0  0  0  0  0  0  0  0  0  0
    9.2955    0.6729    5.6531 C   0  0  0  0  0  0  0  0  0  0  0  0
    9.6867    1.3475    6.9569 C   0  0  0  0  0  0  0  0  0  0  0  0
   10.7303    1.9572    7.0817 O   0  0  0  0  0  0  0  0  0  0  0  0
    8.8373    1.0758    7.9562 N   0  0  0  0  0  0  0  0  0  0  0  0
    8.9417    1.6351    9.2911 C   0  0  0  0  0  0  0  0  0  0  0  0
  2  1  2  0
  3  2  1  0
  4  1  1  0
  5  4  2  0
  5  3  1  0
  6  5  1  0
  7  6  2  0
  8  6  1  0
  9  7  1  0
 10  8  2  0
 11 10  1  0
 11  9  2  0
 12 11  1  0
 13 12  1  0
 14 13  1  0
 15 14  1  0
 16 15  1  0
 17 16  2  0
 18 16  1  0
 19 17  1  0
 20 19  2  0
 20 18  1  0
 21 20  1  0
 22 21  1  0
 23 22  1  0
 24 23  2  0
 25 23  1  0
 26 25  1  0
M  END
>  <SMILES>  (24) 
CNC(=O)CCc1ccc(CCCOc2ccc(-c3ccco3)nc2)o1

>  <scaffold>  (24) 
furan

$$$$

     RDKit          3D

 23 24  0  0  0  0  0  0  0  0999 V2000
    0.0000   -0.0000    0.0000 C   0  0  0  0  0  0  0  0  0  0  0  0
    0.0000    0.0000    1.3782 C   0  0  0  0  0  0  0  0  0  0  0  0
    1.3522    0.0000    1.7786 C   0  0  0  0  0  0  0  0  0  0  0  0
    1.2959    0.0000   -0.3951 O   0  0  0  0  0  0  0  0  0  0  0  0
    2.1326   -0.0506    0.6495 C   0  0  0  0  0  0  0  0  0  0  0  0
   -1.0558   -0.0519   -0.9455 C   0  0  0  0  0  0  0  0  0  0  0  0
   -2.2781   -0.1119   -0.5724 N   0  0  0  0  0  0  0  0  0  0  0  0
   -3.2339   -0.2070   -1.4948 N   0  0  0  0  0  0  0  0  0  0  0  0
   -4.5587   -0.2246   -1.1448 C   0  0  0  0  0  0  0  0  0  0  0  0
   -5.3969   -0.1982   -2.0242 O   0  0  0  0  0  0  0  0  0  0  0  0
   -4.9152   -0.1986    0.2875 C   0  0  0  0  0  0  0  0  0  0  0  0
   -4.1697   -0.8337    1.2684 C   0  0  0  0  0  0  0  0  0  0  0  0
   -6.0870    0.4727    0.6336 C   0  0  0  0  0  0  0  0  0  0  0  0
   -4.6342   -0.7814    2.5650 C   0  0  0  0  0  0  0  0  0  0  0  0
   -6.5578    0.5208    1.9449 C   0  0  0  0  0  0  0  0  0  0  0  0
   -5.8022   -0.1357    2.9679 C   0  0  0  0  0  0  0  0  0  0  0  0
   -7.9880    1.4229    2.3246 Cl  0  0  0  0  0  0  0  0  0  0  0  0
   -6.1288   -0.1087    4.2824 O   0  0  0  0  0  0  0  0  0  0  0  0
   -7.3579    0.2497    4.8926 C   0  0  0  0  0  0  0  0  0  0  0  0
   -8.4164   -0.8086    4.5857 C   0  0  0  0  0  0  0  0  0  0  0  0
   -9.6913   -0.5900    5.3988 C   0  0  0  0  0  0  0  0  0  0  0  0
  -10.7624   -1.6549    5.1686 C   0  0  0  0  0  0  0  0  0  0  0  0
  -12.0349   -1.3611    5.9616 C   0  0  0  0  0  0  0  0  0  0  0  0
  2  1  2  0
  3  2  1  0
  4  1  1  0
  5  4  1  0
  5  3  2  0
  6  1  1  0
  7  6  2  0
  8  7  1  0
  9  8  1  0
 10  9  2  0
 11  9  1  0
 12 11  2  0
 13 11  1  0
 14 12  1  0
 15 13  2  0
 16 15  1  0
 16 14  2  0
 17 15  1  0
 18 16  1  0
 19 18  1  0
 20 19  1  0
 21 20  1  0
 22 21  1  0
 23 22  1  0
M  END
>  <SMILES>  (25) 
CCCCCOc1ccc(C(=O)NN=Cc2ccco2)cc1Cl

>  <scaffold>  (25) 
furan

$$$$

     RDKit          3D

 13 14  0  0  0  0  0  0  0  0999 V2000
    0.0000    0.0000   -0.0000 O   0  0  0  0  0  0  0  0  0  0  0  0
    0.0000    0.0000    1.3548 C   0  0  0  0  0  0  0  0  0  0  0  0
    1.2709    0.0000    1.8239 C   0  0  0  0  0  0  0  0  0  0  0  0
    1.2811    0.0000   -0.3906 C   0  0  0  0  0  0  0  0  0  0  0  0
    2.1421   -0.0521    0.6843 C   0  0  0  0  0  0  0  0  0  0  0  0
    3.5830   -0.1266    0.6947 C   0  0  0  0  0  0  0  0  0  0  0  0
    4.2661   -0.0942   -0.4040 N   0  0  0  0  0  0  0  0  0  0  0  0
    4.3356   -0.2275    1.8449 N   0  0  0  0  0  0  0  0  0  0  0  0
    5.5469   -0.2442    0.0824 O   0  0  0  0  0  0  0  0  0  0  0  0
    5.5684   -0.3182    1.3918 C   0  0  0  0  0  0  0  0  0  0  0  0
    1.5509    0.0537   -1.7172 F   0  0  0  0  0  0  0  0  0  0  0  0
    6.6783   -0.4888    2.1217 N   0  0  0  0  0  0  0  0  0  0  0  0
    6.6387   -0.3329    3.5639 C   0  0  0  0  0  0  0  0  0  0  0  0
  2  1  1  0
  3  2  2  0
  4  1  1  0
  5  4  2  0
  5  3  1  0
  6  5  1  0
  7  6  2  0
  8  6  1  0
  9  7  1  0
 10  8  2  0
 10  9  1  0
 11  4  1  0
 12 10  1  0
 13 12  1  0
M  END
>  <SMILES>  (26) 
CNc1nc(-c2ccoc2F)no1

>  <scaffold>  (26) 
furan

$$$$

     RDKit          3D

 24 26  0  0  0  0  0  0  0  0999 V2000
    0.0000    0.0000   -0.0000 C   0  0  0  0  0  0  0  0  0  0  0  0
    0.0000   -0.0000    1.3548 C   0  0  0  0  0  0  0  0  0  0  0  0
    1.2487   -0.0000    1.8392 O   0  0  0  0  0  0  0  0  0  0  0  0
    1.3566    0.0000   -0.4137 C   0  0  0  0  0  0  0  0  0  0  0  0
    2.0888    0.0524    0.7342 C   0  0  0  0  0  0  0  0  0  0  0  0
    3.5719    0.0176    0.9048 C   0  0  0  0  0  0  0  0  0  0  0  0
    4.0125   -1.3487    1.1167 N   0  0  0  0  0  0  0  0  0  0  0  0
    4.5523   -2.1307    0.1728 C   0  0  0  0  0  0  0  0  0  0  0  0
    4.9023   -1.5471   -0.9719 N   0  0  0  0  0  0  0  0  0  0  0  0
    4.7730   -3.5244    0.3810 C   0  0  0  0  0  0  0  0  0  0  0  0
    5.4830   -2.2727   -1.9150 N   0  0  0  0  0  0  0  0  0  0  0  0
    5.3697   -4.2705   -0.5906 C   0  0  0  0  0  0  0  0  0  0  0  0
    5.7390   -3.5503   -1.7901 C   0  0  0  0  0  0  0  0  0  0  0  0
    6.2913   -4.2630   -2.8013 F   0  0  0  0  0  0  0  0  0  0  0  0
    4.3296   -4.1113    1.6610 C   0  0  0  0  0  0  0  0  0  0  0  0
    2.9789   -4.2803    1.9618 C   0  0  0  0  0  0  0  0  0  0  0  0
    5.2991   -4.5973    2.5243 C   0  0  0  0  0  0  0  0  0  0  0  0
    2.6096   -4.7902    3.1967 C   0  0  0  0  0  0  0  0  0  0  0  0
    4.9361   -5.1090    3.7515 C   0  0  0  0  0  0  0  0  0  0  0  0
    3.5678   -5.0747    4.1456 C   0  0  0  0  0  0  0  0  0  0  0  0
    3.0202   -5.6753    5.7560 S   0  0  0  0  0  6  0  0  0  0  0  0
    1.5868   -5.7138    5.8027 O   0  0  0  0  0  0  0  0  0  0  0  0
    3.7118   -4.9169    6.7583 O   0  0  0  0  0  0  0  0  0  0  0  0
    3.6296   -7.2346    5.7877 N   0  0  0  0  0  0  0  0  0  0  0  0
  2  1  2  0
  3  2  1  0
  4  1  1  0
  5  4  2  0
  5  3  1  0
  6  5  1  0
  7  6  1  0
  8  7  1  0
  9  8  2  0
 10  8  1  0
 11  9  1  0
 12 10  2  0
 13 12  1  0
 13 11  2  0
 14 13  1  0
 15 10  1  0
 16 15  2  0
 17 15  1  0
 18 16  1  0
 19 17  2  0
 20 19  1  0
 20 18  2  0
 21 20  1  0
 22 21  2  0
 23 21  2  0
 24 21  1  0
M  END
>  <SMILES>  (27) 
NS(=O)(=O)c1ccc(-c2cc(F)nnc2NCc2ccco2)cc1

>  <scaffold>  (27) 
furan

$$$$

     RDKit          3D

 28 30  0  0  0  0  0  0  0  0999 V2000
    0.0000    0.0000   -0.0000 C   0  0  0  0  0  0  0  0  0  0  0  0
    0.0000    0.0000    1.3625 C   0  0  0  0  0  0  0  0  0  0  0  0
    1.2487    0.0000    1.8470 O   0  0  0  0  0  0  0  0  0  0  0  0
    1.3489   -0.0000   -0.4113 C   0  0  0  0  0  0  0  0  0  0  0  0
    2.0895   -0.0530    0.7498 C   0  0  0  0  0  0  0  0  0  0  0  0
    3.5308   -0.0192    0.9156 C   0  0  0  0  0  0  0  0  0  0  0  0
    4.1926    0.0754   -0.2185 N   0  0  0  0  0  0  0  0  0  0  0  0
    4.1637   -0.0263    2.1577 C   0  0  0  0  0  0  0  0  0  0  0  0
    5.5361    0.1677   -0.1877 C   0  0  0  0  0  0  0  0  0  0  0  0
    5.5232    0.0611    2.1861 C   0  0  0  0  0  0  0  0  0  0  0  0
    6.2825    0.1693    0.9897 C   0  0  0  0  0  0  0  0  0  0  0  0
    6.0221    0.3064   -1.4116 O   0  0  0  0  0  0  0  0  0  0  0  0
    7.6431    0.3101    1.0725 O   0  0  0  0  0  0  0  0  0  0  0  0
    8.3977   -0.3506    2.0063 C   0  0  0  0  0  0  0  0  0  0  0  0
    8.0374   -1.6332    2.4171 C   0  0  0  0  0  0  0  0  0  0  0  0
    9.5156    0.2596    2.5535 C   0  0  0  0  0  0  0  0  0  0  0  0
    8.8539   -2.2773    3.3216 C   0  0  0  0  0  0  0  0  0  0  0  0
   10.3182   -0.3730    3.4429 C   0  0  0  0  0  0  0  0  0  0  0  0
   10.0409   -1.7066    3.7787 C   0  0  0  0  0  0  0  0  0  0  0  0
   10.7322   -2.4124    4.7058 O   0  0  0  0  0  0  0  0  0  0  0  0
   11.9643   -1.8994    5.1611 C   0  0  0  0  0  0  0  0  0  0  0  0
   13.0884   -2.1250    4.1512 C   0  0  0  0  0  0  0  0  0  0  0  0
   14.4573   -1.6353    4.6210 C   0  0  0  0  0  0  0  0  0  0  0  0
   15.5540   -1.9329    3.5997 C   0  0  0  0  0  0  0  0  0  0  0  0
   16.9611   -1.5090    4.0489 C   0  0  0  0  0  0  0  0  0  0  0  0
   18.0265   -1.8773    3.0176 C   0  0  0  0  0  0  0  0  0  0  0  0
   19.4379   -1.4279    3.3924 C   0  0  0  0  0  0  0  0  0  0  0  0
   20.4717   -1.8674    2.3568 C   0  0  0  0  0  0  0  0  0  0  0  0
  2  1  2  0
  3  2  1  0
  4  1  1  0
  5  4  2  0
  5  3  1  0
  6  5  1  0
  7  6  2  0
  8  6  1  0
  9  7  1  0
 10  8  2  0
 11 10  1  0
 11  9  2  0
 12  9  1  0
 13 11  1  0
 14 13  1  0
 15 14  2  0
 16 14  1  0
 17 15  1  0
 18 16  2  0
 19 18  1  0
 19 17  2  0
 20 19  1  0
 21 20  1  0
 22 21  1  0
 23 22  1  0
 24 23  1  0
 25 24  1  0
 26 25  1  0
 27 26  1  0
 28 27  1  0
M  END
>  <SMILES>  (28) 
CCCCCCCCOc1ccc(Oc2ccc(-c3ccco3)nc2O)cc1

>  <scaffold>  (28) 
furan

$$$$

     RDKit          3D

 27 29  0  0  0  0  0  0  0  0999 V2000
    0.0000   -0.0000   -0.0000 C   0  0  0  0  0  0  0  0  0  0  0  0
    0.0000    0.0000    1.3625 C   0  0  0  0  0  0  0  0  0  0  0  0
    1.2487    0.0000    1.8470 O   0  0  0  0  0  0  0  0  0  0  0  0
    1.3489    0.0000   -0.4113 C   0  0  0  0  0  0  0  0  0  0  0  0
    2.0853    0.0527    0.7432 C   0  0  0  0  0  0  0  0  0  0  0  0
   -1.3684   -0.0000    2.4581 S   0  0  0  0  0  0  0  0  0  0  0  0
   -0.6138   -0.4624    4.0181 C   0  0  0  0  0  0  0  0  0  0  0  0
    0.1153   -1.6290    4.1019 C   0  0  0  0  0  0  0  0  0  0  0  0
   -0.6998    0.3886    5.1190 C   0  0  0  0  0  0  0  0  0  0  0  0
    0.6408   -1.9715    5.3469 C   0  0  0  0  0  0  0  0  0  0  0  0
   -0.1787    0.0541    6.3504 C   0  0  0  0  0  0  0  0  0  0  0  0
    0.3989   -1.2012    6.5129 C   0  0  0  0  0  0  0  0  0  0  0  0
    1.3901   -3.0999    5.3710 F   0  0  0  0  0  0  0  0  0  0  0  0
    3.5586    0.1343    0.9084 C   0  0  0  0  0  0  0  0  0  0  0  0
    0.9332   -1.4708    7.7457 N   0  0  0  0  0  0  0  0  0  0  0  0
    0.5979   -1.1029    9.0309 C   0  0  0  0  0  0  0  0  0  0  0  0
    1.5184   -1.0152   10.0637 C   0  0  0  0  0  0  0  0  0  0  0  0
   -0.7428   -0.8190    9.2867 C   0  0  0  0  0  0  0  0  0  0  0  0
    1.2227   -0.7004   11.3725 C   0  0  0  0  0  0  0  0  0  0  0  0
   -1.0380   -0.5038   10.5955 C   0  0  0  0  0  0  0  0  0  0  0  0
   -0.0976   -0.4523   11.6803 C   0  0  0  0  0  0  0  0  0  0  0  0
   -2.3226   -0.2590   10.9782 O   0  0  0  0  0  0  0  0  0  0  0  0
   -3.3863   -0.3141   10.0787 C   0  0  0  0  0  0  0  0  0  0  0  0
   -0.5173   -0.1849   12.9404 O   0  0  0  0  0  0  0  0  0  0  0  0
    0.3910    0.0451   14.0051 C   0  0  0  0  0  0  0  0  0  0  0  0
    1.0078    1.4400   13.9145 C   0  0  0  0  0  0  0  0  0  0  0  0
    1.9285    1.6559   15.1034 C   0  0  0  0  0  0  0  0  0  0  0  0
  2  1  2  0
  3  2  1  0
  4  1  1  0
  5  4  2  0
  5  3  1  0
  6  2  1  0
  7  6  1  0
  8  7  2  0
  9  7  1  0
 10  8  1  0
 11  9  2  0
 12 10  2  0
 12 11  1  0
 13 10  1  0
 14  5  1  0
 15 12  1  0
 16 15  1  0
 17 16  2  0
 18 16  1  0
 19 17  1  0
 20 18  2  0
 21 20  1  0
 21 19  2  0
 22 20  1  0
 23 22  1  0
 24 21  1  0
 25 24  1  0
 26 25  1  0
 27 26  1  0
M  END
>  <SMILES>  (29) 
CCCOc1ccc(Nc2ccc(Sc3ccc(C)o3)cc2F)cc1OC

>  <scaffold>  (29) 
furan

$$$$

     RDKit          3D

 28 30  0  0  0  0  0  0  0  0999 V2000
    0.0000   -0.0000    0.0000 C   0  0  0  0  0  0  0  0  0  0  0  0
    0.0000   -0.0000    1.3548 C   0  0  0  0  0  0  0  0  0  0  0  0
    1.2637    0.0000    1.8213 O   0  0  0  0  0  0  0  0  0  0  0  0
    1.3566   -0.0000   -0.4137 C   0  0  0  0  0  0  0  0  0  0  0  0
    2.0888    0.0524    0.7342 C   0  0  0  0  0  0  0  0  0  0  0  0
    3.5429    0.1361    0.9752 C   0  0  0  0  0  0  0  0  0  0  0  0
    4.2200   -1.4455    1.6137 S   0  0  0  0  0  0  0  0  0  0  0  0
    3.8546   -1.2529    3.3070 C   0  0  0  0  0  0  0  0  0  0  0  0
    3.2894   -0.1486    3.7912 N   0  0  0  0  0  0  0  0  0  0  0  0
    4.1813   -2.3148    4.1492 C   0  0  0  0  0  0  0  0  0  0  0  0
    3.0743   -0.0277    5.0844 C   0  0  0  0  0  0  0  0  0  0  0  0
    3.9178   -2.0965    5.4924 C   0  0  0  0  0  0  0  0  0  0  0  0
    3.3925   -0.9519    5.9325 N   0  0  0  0  0  0  0  0  0  0  0  0
    4.1700   -3.1023    6.3280 F   0  0  0  0  0  0  0  0  0  0  0  0
    2.4635    1.0733    5.5181 O   0  0  0  0  0  0  0  0  0  0  0  0
    2.2284    1.3417    6.8657 C   0  0  0  0  0  0  0  0  0  0  0  0
    3.2705    1.3442    7.7918 C   0  0  0  0  0  0  0  0  0  0  0  0
    0.9322    1.6547    7.2725 C   0  0  0  0  0  0  0  0  0  0  0  0
    2.9972    1.6634    9.1044 C   0  0  0  0  0  0  0  0  0  0  0  0
    0.6594    1.9772    8.5928 C   0  0  0  0  0  0  0  0  0  0  0  0
    1.7133    2.0373    9.4987 C   0  0  0  0  0  0  0  0  0  0  0  0
    1.5580    2.2739   10.8078 O   0  0  0  0  0  0  0  0  0  0  0  0
    0.2815    2.7065   11.2496 C   0  0  0  0  0  0  0  0  0  0  0  0
    0.0366    4.1852   10.9533 C   0  0  0  0  0  0  0  0  0  0  0  0
   -1.3259    4.6132   11.4960 C   0  0  0  0  0  0  0  0  0  0  0  0
   -1.6430    6.0733   11.1769 C   0  0  0  0  0  0  0  0  0  0  0  0
   -3.0353    6.4346   11.6921 C   0  0  0  0  0  0  0  0  0  0  0  0
   -3.4231    7.8721   11.3491 C   0  0  0  0  0  0  0  0  0  0  0  0
  2  1  2  0
  3  2  1  0
  4  1  1  0
  5  4  2  0
  5  3  1  0
  6  5  1  0
  7  6  1  0
  8  7  1  0
  9  8  2  0
 10  8  1  0
 11  9  1  0
 12 10  2  0
 13 11  2  0
 13 12  1  0
 14 12  1  0
 15 11  1  0
 16 15  1  0
 17 16  2  0
 18 16  1  0
 19 17  1  0
 20 18  2  0
 21 20  1  0
 21 19  2  0
 22 21  1  0
 23 22  1  0
 24 23  1  0
 25 24  1  0
 26 25  1  0
 27 26  1  0
 28 27  1  0
M  END
>  <SMILES>  (30) 
CCCCCCOc1ccc(Oc2nc(F)cc(SCc3ccco3)n2)cc1

>  <scaffold>  (30) 
furan

$$$$

     RDKit          3D

 21 22  0  0  0  0  0  0  0  0999 V2000
   -0.0000   -0.0000    0.0000 C   0  0  0  0  0  0  0  0  0  0  0  0
   -0.0000   -0.0000    1.3782 C   0  0  0  0  0  0  0  0  0  0  0  0
    1.3444    0.0000    1.7763 C   0  0  0  0  0  0  0  0  0  0  0  0
    1.2757    0.0627   -0.4516 O   0  0  0  0  0  0  0  0  0  0  0  0
    2.1139    0.0532    0.5930 C   0  0  0  0  0  0  0  0  0  0  0  0
   -1.1117    0.0546   -0.9955 C   0  0  0  0  0  0  0  0  0  0  0  0
   -0.8676    0.0908   -2.1853 O   0  0  0  0  0  0  0  0  0  0  0  0
    3.4476    0.0546    0.4041 F   0  0  0  0  0  0  0  0  0  0  0  0
   -2.3362    0.0546   -0.4342 N   0  0  0  0  0  0  0  0  0  0  0  0
   -3.5407    0.0464   -1.2286 C   0  0  0  0  0  0  0  0  0  0  0  0
   -4.3242    1.3614   -1.0939 C   0  0  0  0  0  0  0  0  0  0  0  0
   -5.6068    1.2813   -1.9041 C   0  0  0  0  0  0  0  0  0  0  0  0
   -6.7114    1.2225   -1.4013 O   0  0  0  0  0  0  0  0  0  0  0  0
   -5.4035    1.3414   -3.2422 N   0  0  0  0  0  0  0  0  0  0  0  0
   -6.4599    1.1209   -4.2123 C   0  0  0  0  0  0  0  0  0  0  0  0
   -6.3449   -0.2448   -4.8265 C   0  0  0  0  0  0  0  0  0  0  0  0
   -6.6147   -1.4011   -4.0959 C   0  0  0  0  0  0  0  0  0  0  0  0
   -5.9664   -0.4660   -6.1332 C   0  0  0  0  0  0  0  0  0  0  0  0
   -6.4761   -2.6684   -4.5988 C   0  0  0  0  0  0  0  0  0  0  0  0
   -5.8273   -1.7406   -6.6387 C   0  0  0  0  0  0  0  0  0  0  0  0
   -6.0366   -2.8319   -5.9287 C   0  0  0  0  0  0  0  0  0  0  0  0
  2  1  2  0
  3  2  1  0
  4  1  1  0
  5  4  1  0
  5  3  2  0
  6  1  1  0
  7  6  2  0
  8  5  1  0
  9  6  1  0
 10  9  1  0
 11 10  1  0
 12 11  1  0
 13 12  2  0
 14 12  1  0
 15 14  1  0
 16 15  1  0
 17 16  2  0
 18 16  1  0
 19 17  1  0
 20 18  2  0
 21 20  1  0
 21 19  2  0
M  END
>  <SMILES>  (31) 
O=C(CCNC(=O)c1ccc(F)o1)NCc1ccccc1

>  <scaffold>  (31) 
furan

$$$$

     RDKit          3D

 25 26  0  0  0  0  0  0  0  0999 V2000
    0.0000    0.0000    0.0000 C   0  0  0  0  0  0  0  0  0  0  0  0
   -0.0000    0.0000    1.3704 C   0  0  0  0  0  0  0  0  0  0  0  0
    1.3522   -0.0000    1.7707 C   0  0  0  0  0  0  0  0  0  0  0  0
    1.2487    0.0000   -0.5051 O   0  0  0  0  0  0  0  0  0  0  0  0
    2.0951   -0.0512    0.5515 C   0  0  0  0  0  0  0  0  0  0  0  0
   -1.1053   -0.0543   -0.9898 C   0  0  0  0  0  0  0  0  0  0  0  0
    3.5361   -0.1208    0.2812 C   0  0  0  0  0  0  0  0  0  0  0  0
    4.3262   -0.2119    1.1999 O   0  0  0  0  0  0  0  0  0  0  0  0
    3.9676   -0.1314   -1.0112 N   0  0  0  0  0  0  0  0  0  0  0  0
    5.2723   -0.2475   -1.4648 N   0  0  0  0  0  0  0  0  0  0  0  0
    5.6413   -0.3006   -2.7353 C   0  0  0  0  0  0  0  0  0  0  0  0
    4.7684   -0.2430   -3.5686 O   0  0  0  0  0  0  0  0  0  0  0  0
    7.0337   -0.3643   -2.9974 N   0  0  0  0  0  0  0  0  0  0  0  0
    7.7221   -0.3734   -4.1552 C   0  0  0  0  0  0  0  0  0  0  0  0
    7.8706   -0.4200   -1.9237 N   0  0  0  0  0  0  0  0  0  0  0  0
    9.0823   -0.5010   -3.9206 C   0  0  0  0  0  0  0  0  0  0  0  0
    9.0580   -0.5218   -2.4831 C   0  0  0  0  0  0  0  0  0  0  0  0
   10.4004   -0.6356   -4.9912 Cl  0  0  0  0  0  0  0  0  0  0  0  0
   10.2722   -0.6692   -1.6414 C   0  0  0  0  0  0  0  0  0  0  0  0
    6.9830   -0.2397   -5.4360 C   0  0  0  0  0  0  0  0  0  0  0  0
   10.2938   -2.0737   -1.0403 C   0  0  0  0  0  0  0  0  0  0  0  0
   11.5550   -2.2952   -0.2069 C   0  0  0  0  0  0  0  0  0  0  0  0
   11.5544   -3.7193    0.3219 C   0  0  0  0  0  0  0  0  0  0  0  0
   13.0720   -4.0655    1.2739 S   0  0  0  0  0  0  0  0  0  0  0  0
   12.9275   -5.8835    1.4779 C   0  0  0  0  0  0  0  0  0  0  0  0
  2  1  2  0
  3  2  1  0
  4  1  1  0
  5  4  1  0
  5  3  2  0
  6  1  1  0
  7  5  1  0
  8  7  2  0
  9  7  1  0
 10  9  1  0
 11 10  1  0
 12 11  2  0
 13 11  1  0
 14 13  1  0
 15 13  1  0
 16 14  2  0
 17 16  1  0
 17 15  2  0
 18 16  1  0
 19 17  1  0
 20 14  1  0
 21 19  1  0
 22 21  1  0
 23 22  1  0
 24 23  1  0
 25 24  1  0
M  END
>  <SMILES>  (32) 
CSCCCCc1nn(C(=O)NNC(=O)c2ccc(C)o2)c(C)c1Cl

>  <scaffold>  (32) 
furan

$$$$

     RDKit          3D

 31 33  0  0  0  0  0  0  0  0999 V2000
   -0.0000    0.0000    0.0000 C   0  0  0  0  0  0  0  0  0  0  0  0
    0.0000    0.0000    1.3704 C   0  0  0  0  0  0  0  0  0  0  0  0
    1.2415    0.0000    1.8520 O   0  0  0  0  0  0  0  0  0  0  0  0
    1.3489   -0.0000   -0.4113 C   0  0  0  0  0  0  0  0  0  0  0  0
    2.0895   -0.0530    0.7498 C   0  0  0  0  0  0  0  0  0  0  0  0
    3.5474   -0.0188    0.9175 C   0  0  0  0  0  0  0  0  0  0  0  0
    4.3364    0.0658   -0.0027 O   0  0  0  0  0  0  0  0  0  0  0  0
   -1.3606    0.0000    2.4597 S   0  0  0  0  0  0  0  0  0  0  0  0
    3.8905   -0.1430    2.1825 O   0  0  0  0  0  0  0  0  0  0  0  0
   -2.7035    0.0660    1.2571 C   0  0  0  0  0  0  0  0  0  0  0  0
   -2.8895    1.1214    0.3780 C   0  0  0  0  0  0  0  0  0  0  0  0
   -3.5851   -0.9934    1.2585 C   0  0  0  0  0  0  0  0  0  0  0  0
   -3.9656    1.1505   -0.4953 C   0  0  0  0  0  0  0  0  0  0  0  0
   -4.6554   -0.9629    0.3906 C   0  0  0  0  0  0  0  0  0  0  0  0
   -4.9017    0.1192   -0.4363 C   0  0  0  0  0  0  0  0  0  0  0  0
    5.2989   -0.0687    2.4867 C   0  0  0  0  0  0  0  0  0  0  0  0
    5.9372   -1.4457    2.3109 C   0  0  0  0  0  0  0  0  0  0  0  0
   -6.0200    0.1316   -1.2553 N   0  0  0  0  0  0  0  0  0  0  0  0
    5.4470    0.3564    3.9376 C   0  0  0  0  0  0  0  0  0  0  0  0
   -6.4641    1.0262   -2.2164 C   0  0  0  0  0  0  0  0  0  0  0  0
   -5.8305    2.0231   -2.4701 O   0  0  0  0  0  0  0  0  0  0  0  0
   -7.6696    0.7092   -2.7859 N   0  0  0  0  0  0  0  0  0  0  0  0
   -8.3538    1.3501   -3.7961 C   0  0  0  0  0  0  0  0  0  0  0  0
   -9.4851    0.9225   -4.2970 N   0  0  0  0  0  0  0  0  0  0  0  0
   -7.9675    2.5480   -4.4322 C   0  0  0  0  0  0  0  0  0  0  0  0
   -9.9256    1.8047   -5.2373 O   0  0  0  0  0  0  0  0  0  0  0  0
   -9.0315    2.7115   -5.2802 C   0  0  0  0  0  0  0  0  0  0  0  0
   -9.2596    3.7610   -6.3054 C   0  0  0  0  0  0  0  0  0  0  0  0
   -9.0369    3.2218   -7.7175 C   0  0  0  0  0  0  0  0  0  0  0  0
   -7.5817    2.7799   -7.9371 C   0  0  0  0  0  0  0  0  0  0  0  0
   -7.4509    2.1211   -9.3095 C   0  0  0  0  0  0  0  0  0  0  0  0
  2  1  2  0
  3  2  1  0
  4  1  1  0
  5  4  2  0
  5  3  1  0
  6  5  1  0
  7  6  2  0
  8  2  1  0
  9  6  1  0
 10  8  1  0
 11 10  2  0
 12 10  1  0
 13 11  1  0
 14 12  2  0
 15 14  1  0
 15 13  2  0
 16  9  1  0
 17 16  1  0
 18 15  1  0
 19 16  1  0
 20 18  1  0
 21 20  2  0
 22 20  1  0
 23 22  1  0
 24 23  2  0
 25 23  1  0
 26 24  1  0
 27 26  1  0
 27 25  2  0
 28 27  1  0
 29 28  1  0
 30 29  1  0
 31 30  1  0
M  END
>  <SMILES>  (33) 
CCCCc1cc(NC(=O)Nc2ccc(Sc3ccc(C(=O)OC(C)C)o3)cc2)no1

>  <scaffold>  (33) 
furan

$$$$

     RDKit          3D

 31 32  0  0  0  0  0  0  0  0999 V2000
    0.0000    0.0000   -0.0000 O   0  0  0  0  0  0  0  0  0  0  0  0
    0.0000    0.0000    1.3393 C   0  0  0  0  0  0  0  0  0  0  0  0
    1.2782    0.0000    1.8112 C   0  0  0  0  0  0  0  0  0  0  0  0
    1.2811   -0.0000   -0.3906 C   0  0  0  0  0  0  0  0  0  0  0  0
    2.1323   -0.0515    0.6721 C   0  0  0  0  0  0  0  0  0  0  0  0
    3.8929   -0.1426    0.6847 S   0  0  0  0  0  6  0  0  0  0  0  0
    4.3437    0.0806   -0.6676 O   0  0  0  0  0  0  0  0  0  0  0  0
    4.5400    0.6429    1.7076 O   0  0  0  0  0  0  0  0  0  0  0  0
    4.2243   -1.7595    1.0648 N   0  0  0  0  0  0  0  0  0  0  0  0
    5.1658   -2.0327    2.1235 C   0  0  0  0  0  0  0  0  0  0  0  0
    4.4220   -2.6382   -0.0203 C   0  0  0  0  0  0  0  0  0  0  0  0
    5.4990   -2.3707   -0.8508 C   0  0  0  0  0  0  0  0  0  0  0  0
    3.5253   -3.6324   -0.3793 C   0  0  0  0  0  0  0  0  0  0  0  0
    5.6584   -3.1219   -1.9953 C   0  0  0  0  0  0  0  0  0  0  0  0
    3.7014   -4.3709   -1.5107 C   0  0  0  0  0  0  0  0  0  0  0  0
    4.8004   -4.1419   -2.3761 C   0  0  0  0  0  0  0  0  0  0  0  0
    4.8900   -4.8768   -3.5199 F   0  0  0  0  0  0  0  0  0  0  0  0
    2.8217   -5.3238   -1.9288 O   0  0  0  0  0  0  0  0  0  0  0  0
    1.6647   -5.6676   -1.1687 C   0  0  0  0  0  0  0  0  0  0  0  0
    2.0299   -6.5333    0.0361 C   0  0  0  0  0  0  0  0  0  0  0  0
    0.8139   -7.0488    0.8043 C   0  0  0  0  0  0  0  0  0  0  0  0
    0.0231   -5.9399    1.5159 C   0  0  0  0  0  0  0  0  0  0  0  0
   -1.2106   -6.4996    2.2223 C   0  0  0  0  0  0  0  0  0  0  0  0
   -2.0623   -5.4277    2.9007 C   0  0  0  0  0  0  0  0  0  0  0  0
   -3.3096   -6.0315    3.5442 C   0  0  0  0  0  0  0  0  0  0  0  0
   -4.1686   -5.0072    4.2840 C   0  0  0  0  0  0  0  0  0  0  0  0
   -5.4284   -5.6503    4.8614 C   0  0  0  0  0  0  0  0  0  0  0  0
   -6.3343   -4.6726    5.5534 C   0  0  0  0  0  0  0  0  0  0  0  0
   -7.6024   -5.3550    6.0640 C   0  0  0  0  0  0  0  0  0  0  0  0
   -8.5840   -4.3913    6.7290 C   0  0  0  0  0  0  0  0  0  0  0  0
   -9.8560   -5.1125    7.1721 C   0  0  0  0  0  0  0  0  0  0  0  0
  2  1  1  0
  3  2  2  0
  4  1  1  0
  5  4  2  0
  5  3  1  0
  6  5  1  0
  7  6  2  0
  8  6  2  0
  9  6  1  0
 10  9  1  0
 11  9  1  0
 12 11  2  0
 13 11  1  0
 14 12  1  0
 15 13  2  0
 16 15  1  0
 16 14  2  0
 17 16  1  0
 18 15  1  0
 19 18  1  0
 20 19  1  0
 21 20  1  0
 22 21  1  0
 23 22  1  0
 24 23  1  0
 25 24  1  0
 26 25  1  0
 27 26  1  0
 28 27  1  0
 29 28  1  0
 30 29  1  0
 31 30  1  0
M  END
>  <SMILES>  (34) 
CCCCCCCCCCCCCOc1cc(N(C)S(=O)(=O)c2ccoc2)ccc1F

>  <scaffold>  (34) 
furan

$$$$

     RDKit          3D

 27 29  0  0  0  0  0  0  0  0999 V2000
   -0.0000    0.0000   -0.0000 C   0  0  0  0  0  0  0  0  0  0  0  0
    0.0000   -0.0000    1.3625 C   0  0  0  0  0  0  0  0  0  0  0  0
    1.2637    0.0000    1.8290 O   0  0  0  0  0  0  0  0  0  0  0  0
    1.3566    0.0000   -0.4137 C   0  0  0  0  0  0  0  0  0  0  0  0
    2.0888    0.0524    0.7342 C   0  0  0  0  0  0  0  0  0  0  0  0
    3.5597    0.1370    0.9779 C   0  0  0  0  0  0  0  0  0  0  0  0
    4.2263    0.7949   -0.1196 N   0  0  0  0  0  0  0  0  0  0  0  0
   -1.1590   -0.0000    2.2905 C   0  0  0  0  0  0  0  0  0  0  0  0
    5.0963    0.1234   -0.9382 C   0  0  0  0  0  0  0  0  0  0  0  0
    5.4749   -1.0142   -0.8638 O   0  0  0  0  0  0  0  0  0  0  0  0
    3.9814    2.0964   -0.5013 C   0  0  0  0  0  0  0  0  0  0  0  0
    2.9730    3.1531    0.2368 S   0  0  0  0  0  0  0  0  0  0  0  0
    5.5050    1.1474   -1.9580 C   0  0  0  0  0  0  0  0  0  0  0  0
    4.9375    2.3594   -1.7020 C   0  0  0  0  0  0  0  0  0  0  0  0
    4.9351    3.5568   -2.3192 O   0  0  0  0  0  0  0  0  0  0  0  0
    6.3322    0.7724   -2.9527 O   0  0  0  0  0  0  0  0  0  0  0  0
    7.0751    1.7715   -3.6654 C   0  0  0  0  0  0  0  0  0  0  0  0
    7.8687    2.6717   -2.7482 C   0  0  0  0  0  0  0  0  0  0  0  0
    8.0905    3.9833   -3.0775 C   0  0  0  0  0  0  0  0  0  0  0  0
    8.4414    2.1601   -1.5750 C   0  0  0  0  0  0  0  0  0  0  0  0
    8.7736    4.8643   -2.2404 C   0  0  0  0  0  0  0  0  0  0  0  0
    9.1072    3.0199   -0.7541 C   0  0  0  0  0  0  0  0  0  0  0  0
    9.1840    4.3802   -1.0081 C   0  0  0  0  0  0  0  0  0  0  0  0
    9.9782    5.4411    0.0932 Cl  0  0  0  0  0  0  0  0  0  0  0  0
    9.7283    2.5538    0.3846 N   0  0  0  0  0  0  0  0  0  0  0  0
    9.7566    1.3011    0.9198 C   0  0  0  0  0  0  0  0  0  0  0  0
    9.1644    0.3486    0.4894 O   0  0  0  0  0  0  0  0  0  0  0  0
  2  1  2  0
  3  2  1  0
  4  1  1  0
  5  4  2  0
  5  3  1  0
  6  5  1  0
  7  6  1  0
  8  2  1  0
  9  7  1  0
 10  9  2  0
 11  7  1  0
 12 11  2  0
 13  9  1  0
 14 11  1  0
 14 13  2  0
 15 14  1  0
 16 13  1  0
 17 16  1  0
 18 17  1  0
 19 18  2  0
 20 18  1  0
 21 19  1  0
 22 20  2  0
 23 22  1  0
 23 21  2  0
 24 23  1  0
 25 22  1  0
 26 25  1  0
 27 26  2  0
M  END
>  <SMILES>  (35) 
Cc1ccc(CN2C(=O)C(OCc3ccc(Cl)c(NC=O)c3)=C(O)C2=S)o1

>  <scaffold>  (35) 
furan

$$$$

     RDKit          3D

 27 29  0  0  0  0  0  0  0  0999 V2000
    0.0000   -0.0000    0.0000 C   0  0  0  0  0  0  0  0  0  0  0  0
    0.0000   -0.0000    1.3625 C   0  0  0  0  0  0  0  0  0  0  0  0
    1.3599   -0.0000    1.7652 C   0  0  0  0  0  0  0  0  0  0  0  0
    1.2559    0.0000   -0.5080 O   0  0  0  0  0  0  0  0  0  0  0  0
    2.0974   -0.0509    0.5426 C   0  0  0  0  0  0  0  0  0  0  0  0
   -1.0260   -0.0504   -0.9188 N   0  0  0  0  0  0  0  0  0  0  0  0
   -2.3801   -0.1169   -0.6300 C   0  0  0  0  0  0  0  0  0  0  0  0
   -2.8326   -0.1948    0.4801 O   0  0  0  0  0  0  0  0  0  0  0  0
   -3.0855   -0.0971   -1.8140 N   0  0  0  0  0  0  0  0  0  0  0  0
   -4.4691   -0.2027   -1.9481 C   0  0  0  0  0  0  0  0  0  0  0  0
   -4.9257   -0.2090   -3.2653 C   0  0  0  0  0  0  0  0  0  0  0  0
   -5.4014   -0.3476   -0.9217 C   0  0  0  0  0  0  0  0  0  0  0  0
   -6.2630   -0.2549   -3.5222 C   0  0  0  0  0  0  0  0  0  0  0  0
   -6.7626   -0.3887   -1.1805 C   0  0  0  0  0  0  0  0  0  0  0  0
   -7.2236   -0.2969   -2.5127 C   0  0  0  0  0  0  0  0  0  0  0  0
   -8.5789   -0.3933   -2.8250 N   0  0  0  0  0  0  0  0  0  0  0  0
   -9.6870   -0.2935   -2.0115 C   0  0  0  0  0  0  0  0  0  0  0  0
   -9.6128   -0.0923   -0.8225 O   0  0  0  0  0  0  0  0  0  0  0  0
  -10.8563   -0.3928   -2.7039 N   0  0  0  0  0  0  0  0  0  0  0  0
  -12.1362   -0.3691   -2.0204 C   0  0  0  0  0  0  0  0  0  0  0  0
  -13.0266   -1.4378   -2.5395 C   0  0  0  0  0  0  0  0  0  0  0  0
  -13.4007   -2.6287   -1.9933 C   0  0  0  0  0  0  0  0  0  0  0  0
  -13.6065   -1.3120   -3.7488 O   0  0  0  0  0  0  0  0  0  0  0  0
  -14.2023   -3.2195   -2.9689 C   0  0  0  0  0  0  0  0  0  0  0  0
  -14.3158   -2.4273   -4.0083 C   0  0  0  0  0  0  0  0  0  0  0  0
  -15.1239   -2.5372   -5.2797 C   0  0  0  0  0  0  0  0  0  0  0  0
  -16.5206   -2.4902   -5.0378 O   0  0  0  0  0  0  0  0  0  0  0  0
  2  1  2  0
  3  2  1  0
  4  1  1  0
  5  4  1  0
  5  3  2  0
  6  1  1  0
  7  6  1  0
  8  7  2  0
  9  7  1  0
 10  9  1  0
 11 10  2  0
 12 10  1  0
 13 11  1  0
 14 12  2  0
 15 14  1  0
 15 13  2  0
 16 15  1  0
 17 16  1  0
 18 17  2  0
 19 17  1  0
 20 19  1  0
 21 20  1  0
 22 21  2  0
 23 21  1  0
 24 22  1  0
 25 24  2  0
 25 23  1  0
 26 25  1  0
 27 26  1  0
M  END
>  <SMILES>  (36) 
O=C(NCc1ccc(CO)o1)Nc1ccc(NC(=O)Nc2ccco2)cc1

>  <scaffold>  (36) 
furan

$$$$

     RDKit          3D

 24 25  0  0  0  0  0  0  0  0999 V2000
    0.0000    0.0000   -0.0000 C   0  0  0  0  0  0  0  0  0  0  0  0
   -0.0000    0.0000    1.3625 C   0  0  0  0  0  0  0  0  0  0  0  0
    1.2487   -0.0000    1.8470 O   0  0  0  0  0  0  0  0  0  0  0  0
    1.3489   -0.0000   -0.4113 C   0  0  0  0  0  0  0  0  0  0  0  0
    2.0895   -0.0530    0.7498 C   0  0  0  0  0  0  0  0  0  0  0  0
   -1.3684   -0.0000    2.4581 S   0  0  0  0  0  0  0  0  0  0  0  0
   -0.7031    0.5682    4.0004 C   0  0  0  0  0  0  0  0  0  0  0  0
    3.4968   -0.1310    0.9076 C   0  0  0  0  0  0  0  0  0  0  0  0
    3.9804   -0.3147    2.0777 N   0  0  0  0  0  0  0  0  0  0  0  0
   -1.1069   -0.0939    5.0829 N   0  0  0  0  0  0  0  0  0  0  0  0
   -0.7752    0.1871    6.4329 C   0  0  0  0  0  0  0  0  0  0  0  0
    0.5558    0.3841    6.7658 C   0  0  0  0  0  0  0  0  0  0  0  0
   -1.7848    0.2603    7.3567 C   0  0  0  0  0  0  0  0  0  0  0  0
    0.8363    0.6068    8.1049 C   0  0  0  0  0  0  0  0  0  0  0  0
   -1.5079    0.4807    8.6805 C   0  0  0  0  0  0  0  0  0  0  0  0
   -0.1300    0.5802    9.0984 C   0  0  0  0  0  0  0  0  0  0  0  0
    5.3153   -0.3340    2.1858 N   0  0  0  0  0  0  0  0  0  0  0  0
    0.0117    0.8335   10.4297 O   0  0  0  0  0  0  0  0  0  0  0  0
    5.8751   -0.5752    3.4044 C   0  0  0  0  0  0  0  0  0  0  0  0
    7.4903   -0.6444    3.4663 S   0  0  0  0  0  0  0  0  0  0  0  0
    5.0645   -0.7823    4.4404 O   0  0  0  0  0  0  0  0  0  0  0  0
    5.5223   -0.9886    5.7668 C   0  0  0  0  0  0  0  0  0  0  0  0
    1.3272    1.1634   10.8162 C   0  0  0  0  0  0  0  0  0  0  0  0
    5.9865    0.3257    6.3927 C   0  0  0  0  0  0  0  0  0  0  0  0
  2  1  2  0
  3  2  1  0
  4  1  1  0
  5  4  2  0
  5  3  1  0
  6  2  1  0
  7  6  1  0
  8  5  1  0
  9  8  2  0
 10  7  2  0
 11 10  1  0
 12 11  2  0
 13 11  1  0
 14 12  1  0
 15 13  2  0
 16 15  1  0
 16 14  2  0
 17  9  1  0
 18 16  1  0
 19 17  1  0
 20 19  2  0
 21 19  1  0
 22 21  1  0
 23 18  1  0
 24 22  1  0
M  END
>  <SMILES>  (37) 
CCOC(=S)NN=Cc1ccc(SC=Nc2ccc(OC)cc2)o1

>  <scaffold>  (37) 
furan

$$$$

     RDKit          3D

 25 27  0  0  0  0  0  0  0  0999 V2000
    0.0000    0.0000    0.0000 C   0  0  0  0  0  0  0  0  0  0  0  0
    0.0000    0.0000    1.3625 C   0  0  0  0  0  0  0  0  0  0  0  0
    1.2637    0.0000    1.8290 O   0  0  0  0  0  0  0  0  0  0  0  0
    1.3566    0.0000   -0.4137 C   0  0  0  0  0  0  0  0  0  0  0  0
    2.0888   -0.0524    0.7342 C   0  0  0  0  0  0  0  0  0  0  0  0
   -1.0927   -0.0537    2.3411 C   0  0  0  0  0  0  0  0  0  0  0  0
   -0.8995   -0.7139    3.5537 C   0  0  0  0  0  0  0  0  0  0  0  0
   -2.2981    0.5906    2.1101 C   0  0  0  0  0  0  0  0  0  0  0  0
   -1.9115   -0.8326    4.4818 C   0  0  0  0  0  0  0  0  0  0  0  0
   -3.3182    0.4705    3.0409 C   0  0  0  0  0  0  0  0  0  0  0  0
   -3.1675   -0.2967    4.2432 C   0  0  0  0  0  0  0  0  0  0  0  0
    3.5550   -0.0180    0.9029 C   0  0  0  0  0  0  0  0  0  0  0  0
   -4.5562    1.1095    2.7345 N   0  0  0  0  0  0  0  0  0  0  0  0
   -5.6905    0.4089    2.4938 C   0  0  0  0  0  0  0  0  0  0  0  0
   -5.7409   -1.2549    2.4576 S   0  0  0  0  0  0  0  0  0  0  0  0
   -6.8220    1.1323    2.2640 N   0  0  0  0  0  0  0  0  0  0  0  0
   -7.0642    2.5104    2.3537 C   0  0  0  0  0  0  0  0  0  0  0  0
   -6.5585    3.3007    3.3849 C   0  0  0  0  0  0  0  0  0  0  0  0
   -7.9239    3.0797    1.4155 C   0  0  0  0  0  0  0  0  0  0  0  0
   -6.8677    4.6581    3.4590 C   0  0  0  0  0  0  0  0  0  0  0  0
   -8.2270    4.4059    1.4933 C   0  0  0  0  0  0  0  0  0  0  0  0
   -7.7342    5.2067    2.5264 C   0  0  0  0  0  0  0  0  0  0  0  0
   -8.2455    7.0225    2.6129 Br  0  0  0  0  0  0  0  0  0  0  0  0
   -9.0849    4.9847    0.6432 O   0  0  0  0  0  0  0  0  0  0  0  0
   -9.7862    4.2823   -0.3472 C   0  0  0  0  0  0  0  0  0  0  0  0
  2  1  2  0
  3  2  1  0
  4  1  1  0
  5  4  2  0
  5  3  1  0
  6  2  1  0
  7  6  2  0
  8  6  1  0
  9  7  1  0
 10  8  2  0
 11 10  1  0
 11  9  2  0
 12  5  1  0
 13 10  1  0
 14 13  1  0
 15 14  2  0
 16 14  1  0
 17 16  1  0
 18 17  2  0
 19 17  1  0
 20 18  1  0
 21 19  2  0
 22 21  1  0
 22 20  2  0
 23 22  1  0
 24 21  1  0
 25 24  1  0
M  END
>  <SMILES>  (38) 
COc1cc(NC(=S)Nc2cccc(-c3ccc(C)o3)c2)ccc1Br

>  <scaffold>  (38) 
furan

$$$$

     RDKit          3D

 20 22  0  0  0  0  0  0  0  0999 V2000
   -0.0000   -0.0000    0.0000 C   0  0  0  0  0  0  0  0  0  0  0  0
   -0.0000    0.0000    1.3625 C   0  0  0  0  0  0  0  0  0  0  0  0
    1.3900    0.0000    1.7493 C   0  0  0  0  0  0  0  0  0  0  0  0
    1.2704    0.0000   -0.5139 O   0  0  0  0  0  0  0  0  0  0  0  0
    2.1167    0.0512    0.5428 C   0  0  0  0  0  0  0  0  0  0  0  0
    3.5083    0.1252    0.5023 C   0  0  0  0  0  0  0  0  0  0  0  0
    4.1901    0.2222    1.6780 C   0  0  0  0  0  0  0  0  0  0  0  0
    3.5292    0.1890    2.9051 C   0  0  0  0  0  0  0  0  0  0  0  0
    2.1592    0.0567    2.9784 C   0  0  0  0  0  0  0  0  0  0  0  0
   -1.1590    0.0000   -0.9280 C   0  0  0  0  0  0  0  0  0  0  0  0
   -1.2045    0.0592    2.2286 C   0  0  0  0  0  0  0  0  0  0  0  0
   -2.0978    0.8688    2.0768 O   0  0  0  0  0  0  0  0  0  0  0  0
   -1.1981   -0.8500    3.2435 N   0  0  0  0  0  0  0  0  0  0  0  0
   -2.1756   -0.8676    4.2934 C   0  0  0  0  0  0  0  0  0  0  0  0
   -1.6343   -0.4154    5.6194 C   0  0  0  0  0  0  0  0  0  0  0  0
   -0.3371   -0.2001    5.7752 N   0  0  0  0  0  0  0  0  0  0  0  0
   -2.5075   -0.2403    6.6919 C   0  0  0  0  0  0  0  0  0  0  0  0
    0.1688    0.2366    6.8920 C   0  0  0  0  0  0  0  0  0  0  0  0
   -1.9785    0.2175    7.8612 C   0  0  0  0  0  0  0  0  0  0  0  0
   -0.5979    0.4560    8.0355 C   0  0  0  0  0  0  0  0  0  0  0  0
  2  1  2  0
  3  2  1  0
  4  1  1  0
  5  4  1  0
  5  3  2  0
  6  5  1  0
  7  6  2  0
  8  7  1  0
  9  8  2  0
  9  3  1  0
 10  1  1  0
 11  2  1  0
 12 11  2  0
 13 11  1  0
 14 13  1  0
 15 14  1  0
 16 15  2  0
 17 15  1  0
 18 16  1  0
 19 17  2  0
 20 19  1  0
 20 18  2  0
M  END
>  <SMILES>  (39) 
Cc1oc2ccccc2c1C(=O)NCc1ccccn1

>  <scaffold>  (39) 
furan

$$$$

     RDKit          3D

 35 37  0  0  0  0  0  0  0  0999 V2000
    0.0000    0.0000    0.0000 C   0  0  0  0  0  0  0  0  0  0  0  0
    0.0000    0.0000    1.3625 C   0  0  0  0  0  0  0  0  0  0  0  0
    1.3599    0.0000    1.7652 C   0  0  0  0  0  0  0  0  0  0  0  0
    1.2559    0.0000   -0.5080 O   0  0  0  0  0  0  0  0  0  0  0  0
    2.0926    0.0506    0.5366 C   0  0  0  0  0  0  0  0  0  0  0  0
   -1.1181   -0.0549   -1.0012 C   0  0  0  0  0  0  0  0  0  0  0  0
   -1.6031   -1.4105   -1.1826 N   0  0  0  0  0  0  0  0  0  0  0  0
   -2.6845   -1.8648   -0.5361 C   0  0  0  0  0  0  0  0  0  0  0  0
   -3.4184   -1.0522    0.2084 N   0  0  0  0  0  0  0  0  0  0  0  0
   -3.0375   -3.2339   -0.6475 C   0  0  0  0  0  0  0  0  0  0  0  0
   -4.5085   -1.4422    0.8193 N   0  0  0  0  0  0  0  0  0  0  0  0
   -4.1723   -3.6401   -0.0120 C   0  0  0  0  0  0  0  0  0  0  0  0
   -4.9131   -2.6820    0.7067 C   0  0  0  0  0  0  0  0  0  0  0  0
   -6.0459   -3.0200    1.3030 O   0  0  0  0  0  0  0  0  0  0  0  0
   -6.8580   -2.0573    2.0069 C   0  0  0  0  0  0  0  0  0  0  0  0
   -7.8354   -1.3788    1.0904 C   0  0  0  0  0  0  0  0  0  0  0  0
   -9.1100   -1.8958    0.9190 C   0  0  0  0  0  0  0  0  0  0  0  0
   -7.4383   -0.3022    0.3128 C   0  0  0  0  0  0  0  0  0  0  0  0
   -9.9458   -1.2742    0.0406 C   0  0  0  0  0  0  0  0  0  0  0  0
   -8.2810    0.3165   -0.5732 C   0  0  0  0  0  0  0  0  0  0  0  0
   -9.6085   -0.1455   -0.7049 C   0  0  0  0  0  0  0  0  0  0  0  0
  -10.5388    0.4118   -1.5039 O   0  0  0  0  0  0  0  0  0  0  0  0
  -10.2930    1.4725   -2.4380 C   0  0  2  0  0  0  0  0  0  0  0  0
  -11.6149    2.0837   -2.8703 C   0  0  0  0  0  0  0  0  0  0  0  0
   -9.4695    0.8924   -3.5868 C   0  0  0  0  0  0  0  0  0  0  0  0
   -9.3768    1.8447   -4.6337 O   0  0  0  0  0  0  0  0  0  0  0  0
   -8.7381    1.3095   -5.7713 C   0  0  0  0  0  0  0  0  0  0  0  0
   -8.7126    2.3546   -6.8856 C   0  0  0  0  0  0  0  0  0  0  0  0
   -8.0780    1.8044   -8.1619 C   0  0  0  0  0  0  0  0  0  0  0  0
   -8.1262    2.8674   -9.2583 C   0  0  0  0  0  0  0  0  0  0  0  0
   -7.5515    2.3467  -10.5747 C   0  0  0  0  0  0  0  0  0  0  0  0
   -7.6735    3.4323  -11.6554 C   0  0  0  0  0  0  0  0  0  0  0  0
   -7.0415    2.8870  -12.9247 C   0  0  0  0  0  0  0  0  0  0  0  0
   -7.2367    3.9773  -13.9770 C   0  0  0  0  0  0  0  0  0  0  0  0
   -6.5674    3.4982  -15.2642 C   0  0  0  0  0  0  0  0  0  0  0  0
  2  1  1  0
  3  2  2  0
  4  1  2  0
  5  4  1  0
  5  3  1  0
  6  1  1  0
  7  6  1  0
  8  7  1  0
  9  8  2  0
 10  8  1  0
 11  9  1  0
 12 10  2  0
 13 12  1  0
 13 11  2  0
 14 13  1  0
 15 14  1  0
 16 15  1  0
 17 16  2  0
 18 16  1  0
 19 17  1  0
 20 18  2  0
 21 20  1  0
 21 19  2  0
 22 21  1  0
 23 22  1  0
 23 24  1  6
 25 23  1  0
 26 25  1  0
 27 26  1  0
 28 27  1  0
 29 28  1  0
 30 29  1  0
 31 30  1  0
 32 31  1  0
 33 32  1  0
 34 33  1  0
 35 34  1  0
M  CHG  2   3  -1   4   1
M  END
>  <SMILES>  (40) 
CCCCCCCCCOCC(C)Oc1ccc(COc2ccc(NCC3=[O+]C[C-]=C3)nn2)cc1

>  <scaffold>  (40) 
furan

$$$$

     RDKit          3D

 26 28  0  0  0  0  0  0  0  0999 V2000
    0.0000   -0.0000    0.0000 C   0  0  0  0  0  0  0  0  0  0  0  0
   -0.0000   -0.0000    1.3625 C   0  0  0  0  0  0  0  0  0  0  0  0
    1.2487   -0.0000    1.8470 O   0  0  0  0  0  0  0  0  0  0  0  0
    1.3489    0.0000   -0.4113 C   0  0  0  0  0  0  0  0  0  0  0  0
    2.0853   -0.0527    0.7432 C   0  0  0  0  0  0  0  0  0  0  0  0
   -1.4059    0.0691    2.3734 S   0  0  0  0  0  0  0  0  0  0  0  0
   -0.7732   -0.3101    4.0653 C   0  0  0  0  0  0  0  0  0  0  0  0
    3.5265   -0.0189    0.9090 C   0  0  0  0  0  0  0  0  0  0  0  0
    4.0666   -0.2426    2.1746 C   0  0  0  0  0  0  0  0  0  0  0  0
    4.4122    0.2055   -0.1229 C   0  0  0  0  0  0  0  0  0  0  0  0
    5.4261   -0.1716    2.3899 C   0  0  0  0  0  0  0  0  0  0  0  0
    5.7795    0.2779    0.0930 C   0  0  0  0  0  0  0  0  0  0  0  0
    6.3161    0.1251    1.3587 C   0  0  0  0  0  0  0  0  0  0  0  0
   -0.0782    0.8967    4.6276 C   0  0  0  0  0  0  0  0  0  0  0  0
    1.2166    0.7801    4.8353 N   0  0  0  0  0  0  0  0  0  0  0  0
   -0.8055    2.0437    4.9046 C   0  0  0  0  0  0  0  0  0  0  0  0
    1.8541    1.7916    5.3681 C   0  0  0  0  0  0  0  0  0  0  0  0
   -0.1128    3.1481    5.3757 C   0  0  0  0  0  0  0  0  0  0  0  0
    1.2505    3.0022    5.7369 C   0  0  0  0  0  0  0  0  0  0  0  0
    7.6081    0.2171    1.6995 O   0  0  0  0  0  0  0  0  0  0  0  0
    8.5453    0.5671    0.6942 C   0  0  0  0  0  0  0  0  0  0  0  0
    2.0122    3.9801    6.2237 O   0  0  0  0  0  0  0  0  0  0  0  0
    1.4343    5.2177    6.6625 C   0  0  2  0  0  0  0  0  0  0  0  0
    1.0491    6.1060    5.4807 C   0  0  0  0  0  0  0  0  0  0  0  0
    2.4368    5.9356    7.5647 C   0  0  0  0  0  0  0  0  0  0  0  0
    2.7284    5.1816    8.8406 C   0  0  0  0  0  0  0  0  0  0  0  0
  2  1  2  0
  3  2  1  0
  4  1  1  0
  5  4  2  0
  5  3  1  0
  6  2  1  0
  7  6  1  0
  8  5  1  0
  9  8  2  0
 10  8  1  0
 11  9  1  0
 12 10  2  0
 13 11  2  0
 13 12  1  0
 14  7  1  0
 15 14  2  0
 16 14  1  0
 17 15  1  0
 18 16  2  0
 19 18  1  0
 19 17  2  0
 20 13  1  0
 21 20  1  0
 22 19  1  0
 23 22  1  0
 23 24  1  6
 25 23  1  0
 26 25  1  0
M  END
>  <SMILES>  (41) 
CCC(C)Oc1ccc(CSc2ccc(-c3ccc(OC)cc3)o2)nc1

>  <scaffold>  (41) 
furan

$$$$

     RDKit          3D

 21 22  0  0  0  0  0  0  0  0999 V2000
    0.0000    0.0000    0.0000 C   0  0  0  0  0  0  0  0  0  0  0  0
    0.0000    0.0000    1.3625 C   0  0  0  0  0  0  0  0  0  0  0  0
    1.2565    0.0000    1.8264 O   0  0  0  0  0  0  0  0  0  0  0  0
    1.3566    0.0000   -0.4137 C   0  0  0  0  0  0  0  0  0  0  0  0
    2.0888   -0.0524    0.7342 C   0  0  0  0  0  0  0  0  0  0  0  0
    3.5370   -0.1327    0.8966 C   0  0  0  0  0  0  0  0  0  0  0  0
    4.2450   -0.2176   -0.2101 N   0  0  0  0  0  0  0  0  0  0  0  0
    4.1074   -0.1225    2.1687 C   0  0  0  0  0  0  0  0  0  0  0  0
    5.5595   -0.3401   -0.1085 C   0  0  0  0  0  0  0  0  0  0  0  0
    5.4915   -0.2513    2.2754 C   0  0  0  0  0  0  0  0  0  0  0  0
    6.2580   -0.3863    1.1064 C   0  0  0  0  0  0  0  0  0  0  0  0
    6.2391   -0.3748   -1.2533 O   0  0  0  0  0  0  0  0  0  0  0  0
    6.0746   -0.2945    3.4718 O   0  0  0  0  0  0  0  0  0  0  0  0
    7.7375   -0.5792    1.1679 C   0  0  0  0  0  0  0  0  0  0  0  0
    8.2939   -1.4292    0.5269 O   0  0  0  0  0  0  0  0  0  0  0  0
    8.3681    0.3100    1.9196 O   0  0  0  0  0  0  0  0  0  0  0  0
    9.7874    0.3283    2.0598 C   0  0  0  0  0  0  0  0  0  0  0  0
   10.2604   -0.1299    3.4385 C   0  0  0  0  0  0  0  0  0  0  0  0
    9.7564    0.8100    4.5325 C   0  0  0  0  0  0  0  0  0  0  0  0
   10.3003    0.3404    5.8809 C   0  0  0  0  0  0  0  0  0  0  0  0
    9.8684    1.2814    7.0045 C   0  0  0  0  0  0  0  0  0  0  0  0
  2  1  2  0
  3  2  1  0
  4  1  1  0
  5  4  2  0
  5  3  1  0
  6  5  1  0
  7  6  2  0
  8  6  1  0
  9  7  1  0
 10  8  2  0
 11 10  1  0
 11  9  2  0
 12  9  1  0
 13 10  1  0
 14 11  1  0
 15 14  2  0
 16 14  1  0
 17 16  1  0
 18 17  1  0
 19 18  1  0
 20 19  1  0
 21 20  1  0
M  END
>  <SMILES>  (42) 
CCCCCOC(=O)c1c(O)cc(-c2ccco2)nc1O

>  <scaffold>  (42) 
furan

$$$$

     RDKit          3D

 35 37  0  0  0  0  0  0  0  0999 V2000
    0.0000    0.0000    0.0000 C   0  0  0  0  0  0  0  0  0  0  0  0
   -0.0000   -0.0000    1.3625 C   0  0  0  0  0  0  0  0  0  0  0  0
    1.3664   -0.0000    1.7427 C   0  0  0  0  0  0  0  0  0  0  0  0
    1.2487    0.0000   -0.5051 O   0  0  0  0  0  0  0  0  0  0  0  0
    2.0854    0.0506    0.5395 C   0  0  0  0  0  0  0  0  0  0  0  0
   -1.1458    0.0000   -0.9174 C   0  0  0  0  0  0  0  0  0  0  0  0
   -2.3081   -0.0000   -0.5630 O   0  0  0  0  0  0  0  0  0  0  0  0
   -0.7371   -0.0538   -2.2161 N   0  0  0  0  0  0  0  0  0  0  0  0
   -1.6484   -0.1150   -3.1956 N   0  0  0  0  0  0  0  0  0  0  0  0
   -1.1554   -0.1119   -4.3683 C   0  0  0  0  0  0  0  0  0  0  0  0
   -2.0741   -0.2259   -5.4320 C   0  0  0  0  0  0  0  0  0  0  0  0
   -3.4224   -0.4070   -5.5068 C   0  0  0  0  0  0  0  0  0  0  0  0
   -1.5090   -0.1693   -6.6620 O   0  0  0  0  0  0  0  0  0  0  0  0
   -3.8312   -0.5047   -6.8277 C   0  0  0  0  0  0  0  0  0  0  0  0
   -2.5572   -0.3499   -7.4759 C   0  0  0  0  0  0  0  0  0  0  0  0
   -2.1691   -0.2623   -9.1626 S   0  0  0  0  0  0  0  0  0  0  0  0
   -0.3631   -0.0060   -9.2037 C   0  0  0  0  0  0  0  0  0  0  0  0
    0.4116   -1.2060   -8.7682 C   0  0  0  0  0  0  0  0  0  0  0  0
    0.1660   -2.4455   -9.3383 C   0  0  0  0  0  0  0  0  0  0  0  0
    1.4082   -1.0976   -7.8109 C   0  0  0  0  0  0  0  0  0  0  0  0
    0.9440   -3.5203   -8.9373 C   0  0  0  0  0  0  0  0  0  0  0  0
    2.1909   -2.1792   -7.4093 C   0  0  0  0  0  0  0  0  0  0  0  0
    1.9601   -3.4433   -7.9976 C   0  0  0  0  0  0  0  0  0  0  0  0
    3.1105   -2.0379   -6.4459 F   0  0  0  0  0  0  0  0  0  0  0  0
    2.7526   -4.6707   -7.5505 C   0  0  2  0  0  0  0  0  0  0  0  0
    3.5396   -5.2384   -8.7306 C   0  0  0  0  0  0  0  0  0  0  0  0
    1.8200   -5.7078   -6.9266 C   0  0  0  0  0  0  0  0  0  0  0  0
    1.0715   -5.1894   -5.6997 C   0  0  0  0  0  0  0  0  0  0  0  0
    0.1140   -6.2443   -5.1476 C   0  0  0  0  0  0  0  0  0  0  0  0
   -0.7001   -5.7554   -3.9507 C   0  0  0  0  0  0  0  0  0  0  0  0
   -1.6843   -6.8327   -3.4690 C   0  0  0  0  0  0  0  0  0  0  0  0
   -2.4225   -6.4503   -2.1872 C   0  0  0  0  0  0  0  0  0  0  0  0
   -3.3460   -7.5750   -1.7219 C   0  0  0  0  0  0  0  0  0  0  0  0
   -4.0169   -7.1654   -0.4117 C   0  0  0  0  0  0  0  0  0  0  0  0
   -4.9116   -8.2813    0.1256 C   0  0  0  0  0  0  0  0  0  0  0  0
  2  1  2  0
  3  2  1  0
  4  1  1  0
  5  4  1  0
  5  3  2  0
  6  1  1  0
  7  6  2  0
  8  6  1  0
  9  8  1  0
 10  9  2  0
 11 10  1  0
 12 11  1  0
 13 11  2  0
 14 12  2  0
 15 14  1  0
 15 13  1  0
 16 15  2  0
 17 16  1  0
 18 17  1  0
 19 18  2  0
 20 18  1  0
 21 19  1  0
 22 20  2  0
 23 22  1  0
 23 21  2  0
 24 22  1  0
 25 23  1  0
 25 26  1  6
 27 25  1  0
 28 27  1  0
 29 28  1  0
 30 29  1  0
 31 30  1  0
 32 31  1  0
 33 32  1  0
 34 33  1  0
 35 34  1  0
M  CHG  4   3  -1  13   1  14  -1  16   1
M  END
>  <SMILES>  (43) 
CCCCCCCCCC(C)c1ccc(C[S+]=C2[C-]=CC(C=NNC(=O)c3c[c-]co3)=[O+]2)cc1F

>  <scaffold>  (43) 
furan

$$$$

     RDKit          3D

 34 36  0  0  0  0  0  0  0  0999 V2000
    0.0000   -0.0000    0.0000 C   0  0  0  0  0  0  0  0  0  0  0  0
    0.0000   -0.0000    1.3625 C   0  0  0  0  0  0  0  0  0  0  0  0
    1.2558   -0.0000    1.8498 O   0  0  0  0  0  0  0  0  0  0  0  0
    1.3489    0.0000   -0.4113 C   0  0  0  0  0  0  0  0  0  0  0  0
    2.1506   -0.0525    0.7085 C   0  0  0  0  0  0  0  0  0  0  0  0
   -1.3606    0.0000    2.4519 S   0  0  0  0  0  0  0  0  0  0  0  0
    3.5918   -0.0190    0.8743 C   0  0  0  0  0  0  0  0  0  0  0  0
    4.3261    0.0702   -0.0809 O   0  0  0  0  0  0  0  0  0  0  0  0
    4.0095   -0.1467    2.1405 O   0  0  0  0  0  0  0  0  0  0  0  0
   -0.6851   -0.6755    3.9456 C   0  0  0  0  0  0  0  0  0  0  0  0
    0.0988   -1.8181    3.9082 C   0  0  0  0  0  0  0  0  0  0  0  0
   -0.9253    0.0150    5.1327 C   0  0  0  0  0  0  0  0  0  0  0  0
    0.6623   -2.3299    4.9916 N   0  0  0  0  0  0  0  0  0  0  0  0
   -0.4258   -0.5700    6.2668 C   0  0  0  0  0  0  0  0  0  0  0  0
    0.4090   -1.7428    6.1424 C   0  0  0  0  0  0  0  0  0  0  0  0
    5.4099   -0.0737    2.4432 C   0  0  0  0  0  0  0  0  0  0  0  0
    0.9159   -2.2517    7.2638 O   0  0  0  0  0  0  0  0  0  0  0  0
    5.8692    1.3730    2.5046 C   0  0  0  0  0  0  0  0  0  0  0  0
    1.7618   -3.3691    7.2180 C   0  0  0  0  0  0  0  0  0  0  0  0
    2.9471   -3.2721    6.5215 C   0  0  0  0  0  0  0  0  0  0  0  0
    1.4182   -4.5517    7.8713 C   0  0  0  0  0  0  0  0  0  0  0  0
    3.7728   -4.3853    6.5456 C   0  0  0  0  0  0  0  0  0  0  0  0
    2.2396   -5.6582    7.8953 C   0  0  0  0  0  0  0  0  0  0  0  0
    3.4350   -5.5666    7.1701 C   0  0  0  0  0  0  0  0  0  0  0  0
    4.1957   -6.7065    7.1783 N   0  0  0  0  0  0  0  0  0  0  0  0
    5.5378   -6.6179    6.7824 O   0  0  0  0  0  0  0  0  0  0  0  0
    6.4357   -6.1559    7.8131 C   0  0  1  0  0  0  0  0  0  0  0  0
    6.6292   -7.1995    8.9121 C   0  0  0  0  0  0  0  0  0  0  0  0
    7.7557   -5.7939    7.1344 C   0  0  0  0  0  0  0  0  0  0  0  0
    7.6115   -4.5054    6.3260 C   0  0  0  0  0  0  0  0  0  0  0  0
    8.8990   -4.1263    5.5777 C   0  0  0  0  0  0  0  0  0  0  0  0
    8.6860   -2.8641    4.7437 C   0  0  0  0  0  0  0  0  0  0  0  0
    9.9231   -2.4750    3.9358 C   0  0  0  0  0  0  0  0  0  0  0  0
    9.6409   -1.2414    3.0797 C   0  0  0  0  0  0  0  0  0  0  0  0
  2  1  1  0
  3  2  1  0
  4  1  2  0
  5  4  1  0
  5  3  1  0
  6  2  2  0
  7  5  2  0
  8  7  1  0
  9  7  1  0
 10  6  1  0
 11 10  2  0
 12 10  1  0
 13 11  1  0
 14 12  2  0
 15 13  2  0
 15 14  1  0
 16  9  1  0
 17 15  1  0
 18 16  1  0
 19 17  1  0
 20 19  2  0
 21 19  1  0
 22 20  1  0
 23 21  2  0
 24 23  1  0
 24 22  2  0
 25 24  1  0
 26 25  1  0
 27 26  1  0
 27 28  1  1
 29 27  1  0
 30 29  1  0
 31 30  1  0
 32 31  1  0
 33 32  1  0
 34 33  1  0
M  CHG  2   6   1   8  -1
M  END
>  <SMILES>  (44) 
CCCCCCC(C)ONc1ccc(Oc2ccc([S+]=C3C=CC(=C([O-])OCC)O3)cn2)cc1

>  <scaffold>  (44) 
furan

$$$$

     RDKit          3D

 21 23  0  0  0  0  0  0  0  0999 V2000
    0.0000    0.0000   -0.0000 C   0  0  0  0  0  0  0  0  0  0  0  0
   -0.0000   -0.0000    1.3625 C   0  0  0  0  0  0  0  0  0  0  0  0
    1.2487    0.0000    1.8470 O   0  0  0  0  0  0  0  0  0  0  0  0
    1.3489    0.0000   -0.4113 C   0  0  0  0  0  0  0  0  0  0  0  0
    2.0895   -0.0530    0.7498 C   0  0  0  0  0  0  0  0  0  0  0  0
    3.5225   -0.0194    0.9147 C   0  0  0  0  0  0  0  0  0  0  0  0
    4.2456    0.1359   -0.2020 N   0  0  0  0  0  0  0  0  0  0  0  0
    4.1589   -0.1350    2.1497 C   0  0  0  0  0  0  0  0  0  0  0  0
    5.5475    0.2187   -0.0938 C   0  0  0  0  0  0  0  0  0  0  0  0
    5.5140   -0.0488    2.2621 C   0  0  0  0  0  0  0  0  0  0  0  0
    6.2458    0.1558    1.1205 C   0  0  0  0  0  0  0  0  0  0  0  0
    7.5766    0.2845    1.2844 N   0  0  0  0  0  0  0  0  0  0  0  0
    8.4728    0.7073    0.2356 C   0  0  0  0  0  0  0  0  0  0  0  0
    9.8040    1.0963    0.8765 C   0  0  0  0  0  0  0  0  0  0  0  0
    9.7204    2.1534    1.7938 O   0  0  0  0  0  0  0  0  0  0  0  0
    9.5253    3.4473    1.4140 C   0  0  0  0  0  0  0  0  0  0  0  0
    9.2454    4.4292    2.3750 C   0  0  0  0  0  0  0  0  0  0  0  0
    9.5784    3.8407    0.0776 C   0  0  0  0  0  0  0  0  0  0  0  0
    9.0824    5.7743    2.1223 C   0  0  0  0  0  0  0  0  0  0  0  0
    9.4182    5.1782   -0.1742 C   0  0  0  0  0  0  0  0  0  0  0  0
    9.2060    6.1905    0.8059 C   0  0  0  0  0  0  0  0  0  0  0  0
  2  1  2  0
  3  2  1  0
  4  1  1  0
  5  4  2  0
  5  3  1  0
  6  5  1  0
  7  6  2  0
  8  6  1  0
  9  7  1  0
 10  8  2  0
 11 10  1  0
 11  9  2  0
 12 11  1  0
 13 12  1  0
 14 13  1  0
 15 14  1  0
 16 15  1  0
 17 16  2  0
 18 16  1  0
 19 17  1  0
 20 18  2  0
 21 20  1  0
 21 19  2  0
M  END
>  <SMILES>  (45) 
c1ccc(OCCNc2ccc(-c3ccco3)nc2)cc1

>  <scaffold>  (45) 
furan

$$$$

     RDKit          3D

 26 28  0  0  0  0  0  0  0  0999 V2000
   -0.0000    0.0000   -0.0000 C   0  0  0  0  0  0  0  0  0  0  0  0
   -0.0000   -0.0000    1.3704 C   0  0  0  0  0  0  0  0  0  0  0  0
    1.3586    0.0000    1.7484 C   0  0  0  0  0  0  0  0  0  0  0  0
    1.2559   -0.0000   -0.5080 O   0  0  0  0  0  0  0  0  0  0  0  0
    2.0926   -0.0506    0.5366 C   0  0  0  0  0  0  0  0  0  0  0  0
   -1.1135    0.0000   -0.8915 C   0  0  0  0  0  0  0  0  0  0  0  0
   -2.3794   -0.0622   -0.5643 N   0  0  0  0  0  0  0  0  0  0  0  0
   -0.9149    0.0532   -2.2228 O   0  0  0  0  0  0  0  0  0  0  0  0
   -3.0684   -0.0872   -1.7215 C   0  0  0  0  0  0  0  0  0  0  0  0
   -2.1751   -0.0188   -2.7148 C   0  0  0  0  0  0  0  0  0  0  0  0
   -2.3246   -0.0441   -4.1832 C   0  0  0  0  0  0  0  0  0  0  0  0
   -3.4334   -0.0643   -4.6626 O   0  0  0  0  0  0  0  0  0  0  0  0
   -1.2067   -0.0471   -4.9070 O   0  0  0  0  0  0  0  0  0  0  0  0
   -1.2172   -0.0150   -6.3249 C   0  0  0  0  0  0  0  0  0  0  0  0
   -1.3464    1.3847   -6.8776 C   0  0  0  0  0  0  0  0  0  0  0  0
   -1.4225    1.5418   -8.2608 C   0  0  0  0  0  0  0  0  0  0  0  0
   -1.3863    2.4911   -6.0435 C   0  0  0  0  0  0  0  0  0  0  0  0
   -1.4923    2.8172   -8.8194 C   0  0  0  0  0  0  0  0  0  0  0  0
   -1.4558    3.7592   -6.5991 C   0  0  0  0  0  0  0  0  0  0  0  0
   -1.5443    3.9216   -7.9964 C   0  0  0  0  0  0  0  0  0  0  0  0
   -1.4265    0.3939   -8.9948 O   0  0  0  0  0  0  0  0  0  0  0  0
   -1.4515    0.5036  -10.4004 C   0  0  0  0  0  0  0  0  0  0  0  0
   -1.3897   -0.9202  -10.9511 C   0  0  0  0  0  0  0  0  0  0  0  0
   -1.3590   -0.8537  -12.4772 C   0  0  0  0  0  0  0  0  0  0  0  0
   -1.2426   -2.2936  -12.9746 C   0  0  0  0  0  0  0  0  0  0  0  0
   -1.2629   -2.2861  -14.5023 C   0  0  0  0  0  0  0  0  0  0  0  0
  2  1  2  0
  3  2  1  0
  4  1  1  0
  5  4  1  0
  5  3  2  0
  6  1  1  0
  7  6  2  0
  8  6  1  0
  9  7  1  0
 10  9  2  0
 10  8  1  0
 11 10  1  0
 12 11  2  0
 13 11  1  0
 14 13  1  0
 15 14  1  0
 16 15  2  0
 17 15  1  0
 18 16  1  0
 19 17  2  0
 20 19  1  0
 20 18  2  0
 21 16  1  0
 22 21  1  0
 23 22  1  0
 24 23  1  0
 25 24  1  0
 26 25  1  0
M  END
>  <SMILES>  (46) 
CCCCCOc1ccccc1COC(=O)c1cnc(-c2ccco2)o1

>  <scaffold>  (46) 
furan

$$$$

     RDKit          3D

 28 30  0  0  0  0  0  0  0  0999 V2000
    0.0000   -0.0000   -0.0000 C   0  0  0  0  0  0  0  0  0  0  0  0
   -0.0000    0.0000    1.3625 C   0  0  0  0  0  0  0  0  0  0  0  0
    1.2487    0.0000    1.8470 O   0  0  0  0  0  0  0  0  0  0  0  0
    1.3489   -0.0000   -0.4113 C   0  0  0  0  0  0  0  0  0  0  0  0
    2.0895   -0.0530    0.7498 C   0  0  0  0  0  0  0  0  0  0  0  0
   -1.3528    0.0000    2.4457 S   0  0  0  0  0  0  0  0  0  0  0  0
    3.5294   -0.1328    0.9113 C   0  0  0  0  0  0  0  0  0  0  0  0
    4.3126   -0.1651   -0.0081 O   0  0  0  0  0  0  0  0  0  0  0  0
    3.8725   -0.2183    2.1952 O   0  0  0  0  0  0  0  0  0  0  0  0
   -2.6115    0.4504    1.2500 C   0  0  0  0  0  0  0  0  0  0  0  0
   -2.6424    1.6618    0.5608 C   0  0  0  0  0  0  0  0  0  0  0  0
   -3.6346   -0.4694    1.0810 C   0  0  0  0  0  0  0  0  0  0  0  0
   -3.6582    1.9837   -0.3133 C   0  0  0  0  0  0  0  0  0  0  0  0
   -4.6683   -0.1383    0.1933 C   0  0  0  0  0  0  0  0  0  0  0  0
   -4.7007    1.0807   -0.4519 C   0  0  0  0  0  0  0  0  0  0  0  0
    5.2388   -0.3558    2.4785 C   0  0  0  0  0  0  0  0  0  0  0  0
    6.0987   -1.2794    1.8860 C   0  0  0  0  0  0  0  0  0  0  0  0
    5.6446    0.4278    3.5372 C   0  0  0  0  0  0  0  0  0  0  0  0
    7.4185   -1.4096    2.2310 C   0  0  0  0  0  0  0  0  0  0  0  0
    6.9788    0.2876    3.8860 C   0  0  0  0  0  0  0  0  0  0  0  0
    7.8799   -0.5895    3.2813 C   0  0  0  0  0  0  0  0  0  0  0  0
    9.2056   -0.7690    3.4955 O   0  0  0  0  0  0  0  0  0  0  0  0
    9.7029   -0.0056    4.5718 C   0  0  0  0  0  0  0  0  0  0  0  0
   11.1653   -0.4459    4.6141 C   0  0  0  0  0  0  0  0  0  0  0  0
   11.8172    0.2746    5.7933 C   0  0  0  0  0  0  0  0  0  0  0  0
   12.0724    1.7621    5.5556 C   0  0  0  0  0  0  0  0  0  0  0  0
   12.7737    2.4227    6.7414 C   0  0  0  0  0  0  0  0  0  0  0  0
   13.0540    3.8925    6.4320 C   0  0  0  0  0  0  0  0  0  0  0  0
  2  1  1  0
  3  2  1  0
  4  1  2  0
  5  4  1  0
  5  3  1  0
  6  2  2  0
  7  5  2  0
  8  7  1  0
  9  7  1  0
 10  6  1  0
 11 10  2  0
 12 10  1  0
 13 11  1  0
 14 12  2  0
 15 14  1  0
 15 13  2  0
 16  9  1  0
 17 16  2  0
 18 16  1  0
 19 17  1  0
 20 18  2  0
 21 20  1  0
 21 19  2  0
 22 21  1  0
 23 22  1  0
 24 23  1  0
 25 24  1  0
 26 25  1  0
 27 26  1  0
 28 27  1  0
M  CHG  2   6   1   8  -1
M  END
>  <SMILES>  (47) 
CCCCCCOc1ccc(OC([O-])=C2C=CC(=[S+]c3ccccc3)O2)cc1

>  <scaffold>  (47) 
furan

$$$$

     RDKit          3D

 21 22  0  0  0  0  0  0  0  0999 V2000
   -0.0000    0.0000   -0.0000 C   0  0  0  0  0  0  0  0  0  0  0  0
   -0.0000    0.0000    1.3625 C   0  0  0  0  0  0  0  0  0  0  0  0
    1.3664    0.0000    1.7427 C   0  0  0  0  0  0  0  0  0  0  0  0
    1.2416    0.0000   -0.5023 O   0  0  0  0  0  0  0  0  0  0  0  0
    2.0879    0.0512    0.5544 C   0  0  0  0  0  0  0  0  0  0  0  0
   -1.1590    0.0000   -0.9280 C   0  0  0  0  0  0  0  0  0  0  0  0
    1.8820   -0.0581    3.1248 C   0  0  0  0  0  0  0  0  0  0  0  0
    3.0474   -0.2337    3.3906 O   0  0  0  0  0  0  0  0  0  0  0  0
    3.7703    0.1297    0.1463 S   0  0  0  0  0  0  0  0  0  0  0  0
    0.8902    0.1066    3.9982 O   0  0  0  0  0  0  0  0  0  0  0  0
    4.6445   -0.1434    1.7487 C   0  0  0  0  0  0  0  0  0  0  0  0
    1.2678    0.1254    5.3651 C   0  0  0  0  0  0  0  0  0  0  0  0
    1.6832    1.5310    5.7646 C   0  0  0  0  0  0  0  0  0  0  0  0
    6.1236    0.0569    1.5819 C   0  0  0  0  0  0  0  0  0  0  0  0
    6.6468    1.3335    1.4475 C   0  0  0  0  0  0  0  0  0  0  0  0
    6.9940   -1.0320    1.5906 C   0  0  0  0  0  0  0  0  0  0  0  0
    7.9928    1.5680    1.3423 C   0  0  0  0  0  0  0  0  0  0  0  0
    8.3321   -0.7977    1.4846 C   0  0  0  0  0  0  0  0  0  0  0  0
    8.8963    0.5066    1.3678 C   0  0  0  0  0  0  0  0  0  0  0  0
   10.2383    0.6154    1.3255 O   0  0  0  0  0  0  0  0  0  0  0  0
   10.8312    1.8989    1.4376 C   0  0  0  0  0  0  0  0  0  0  0  0
  2  1  2  0
  3  2  1  0
  4  1  1  0
  5  4  1  0
  5  3  2  0
  6  1  1  0
  7  3  1  0
  8  7  2  0
  9  5  1  0
 10  7  1  0
 11  9  1  0
 12 10  1  0
 13 12  1  0
 14 11  1  0
 15 14  2  0
 16 14  1  0
 17 15  1  0
 18 16  2  0
 19 18  1  0
 19 17  2  0
 20 19  1  0
 21 20  1  0
M  END
>  <SMILES>  (48) 
CCOC(=O)c1cc(C)oc1SCc1ccc(OC)cc1

>  <scaffold>  (48) 
furan

$$$$

     RDKit          3D

 26 28  0  0  0  0  0  0  0  0999 V2000
    0.0000   -0.0000    0.0000 C   0  0  0  0  0  0  0  0  0  0  0  0
    0.0000    0.0000    1.3625 C   0  0  0  0  0  0  0  0  0  0  0  0
    1.2487    0.0000    1.8470 O   0  0  0  0  0  0  0  0  0  0  0  0
    1.3489    0.0000   -0.4113 C   0  0  0  0  0  0  0  0  0  0  0  0
    2.0895   -0.0530    0.7498 C   0  0  0  0  0  0  0  0  0  0  0  0
   -1.4550    0.0715    2.4088 S   0  0  0  0  0  6  0  0  0  0  0  0
   -1.3463   -0.9314    3.4173 O   0  0  0  0  0  0  0  0  0  0  0  0
   -2.5736    0.0165    1.5122 O   0  0  0  0  0  0  0  0  0  0  0  0
    3.5212   -0.1323    0.9103 C   0  0  0  0  0  0  0  0  0  0  0  0
    4.2787   -0.1616   -0.1569 N   0  0  0  0  0  0  0  0  0  0  0  0
    4.0922   -0.2333    2.1958 C   0  0  0  0  0  0  0  0  0  0  0  0
    5.5638   -0.2791   -0.0599 N   0  0  0  0  0  0  0  0  0  0  0  0
    5.4302   -0.3533    2.2945 C   0  0  0  0  0  0  0  0  0  0  0  0
    6.2485   -0.4451    1.1431 C   0  0  0  0  0  0  0  0  0  0  0  0
    7.4612   -0.5933    1.1155 O   0  0  0  0  0  0  0  0  0  0  0  0
   -1.3837    1.5242    3.1589 N   0  0  0  0  0  0  0  0  0  0  0  0
   -1.6276    2.7035    2.3196 C   0  0  0  0  0  0  0  0  0  0  0  0
    6.2933   -0.2424   -1.3138 C   0  0  0  0  0  0  0  0  0  0  0  0
    5.6987    0.5652   -2.4202 C   0  0  0  0  0  0  0  0  0  0  0  0
    5.2571    0.0561   -3.6225 C   0  0  0  0  0  0  0  0  0  0  0  0
    5.4753    1.9191   -2.1745 C   0  0  0  0  0  0  0  0  0  0  0  0
    4.6727    0.8306   -4.5902 C   0  0  0  0  0  0  0  0  0  0  0  0
    4.8829    2.6934   -3.1487 C   0  0  0  0  0  0  0  0  0  0  0  0
    4.5041    2.2056   -4.3738 C   0  0  0  0  0  0  0  0  0  0  0  0
    3.9695    2.8661   -5.4091 O   0  0  0  0  0  0  0  0  0  0  0  0
    3.8279    4.2528   -5.2579 C   0  0  0  0  0  0  0  0  0  0  0  0
  2  1  2  0
  3  2  1  0
  4  1  1  0
  5  4  2  0
  5  3  1  0
  6  2  1  0
  7  6  2  0
  8  6  2  0
  9  5  1  0
 10  9  2  0
 11  9  1  0
 12 10  1  0
 13 11  2  0
 14 13  1  0
 14 12  1  0
 15 14  2  0
 16  6  1  0
 17 16  1  0
 18 12  1  0
 19 18  1  0
 20 19  2  0
 21 19  1  0
 22 20  1  0
 23 21  2  0
 24 22  2  0
 24 23  1  0
 25 24  1  0
 26 25  1  0
M  END
>  <SMILES>  (49) 
CNS(=O)(=O)c1ccc(-c2ccc(=O)n(Cc3ccc(OC)cc3)n2)o1

>  <scaffold>  (49) 
furan

$$$$

     RDKit          3D

 21 22  0  0  0  0  0  0  0  0999 V2000
   -0.0000    0.0000    0.0000 C   0  0  0  0  0  0  0  0  0  0  0  0
   -0.0000    0.0000    1.3625 C   0  0  0  0  0  0  0  0  0  0  0  0
    1.3599   -0.0000    1.7652 C   0  0  0  0  0  0  0  0  0  0  0  0
    1.2559   -0.0000   -0.5080 O   0  0  0  0  0  0  0  0  0  0  0  0
    2.1022    0.0512    0.5486 C   0  0  0  0  0  0  0  0  0  0  0  0
   -1.1053    0.0543   -0.9898 C   0  0  0  0  0  0  0  0  0  0  0  0
    3.5683    0.1220    0.2736 C   0  0  0  0  0  0  0  0  0  0  0  0
    4.2529    1.0452    1.0906 O   0  0  0  0  0  0  0  0  0  0  0  0
    3.9376    2.3576    0.9739 C   0  0  0  0  0  0  0  0  0  0  0  0
    4.6086    3.2311    1.8415 C   0  0  0  0  0  0  0  0  0  0  0  0
    3.0470    2.9248    0.0881 C   0  0  0  0  0  0  0  0  0  0  0  0
    4.4124    4.5940    1.7818 C   0  0  0  0  0  0  0  0  0  0  0  0
    2.8488    4.2955    0.0301 C   0  0  0  0  0  0  0  0  0  0  0  0
    3.5380    5.1602    0.8553 C   0  0  0  0  0  0  0  0  0  0  0  0
    3.4680    6.5209    0.8580 O   0  0  0  0  0  0  0  0  0  0  0  0
    2.5081    7.2280    0.0748 C   0  0  1  0  0  0  0  0  0  0  0  0
    1.0928    7.0903    0.6337 C   0  0  0  0  0  0  0  0  0  0  0  0
    2.9692    8.6841    0.0345 C   0  0  0  0  0  0  0  0  0  0  0  0
    2.0520    9.5480   -0.8298 C   0  0  0  0  0  0  0  0  0  0  0  0
    2.5829   10.9704   -0.8809 C   0  0  0  0  0  0  0  0  0  0  0  0
    1.4795   12.0808   -1.8586 S   0  0  0  0  0  0  0  0  0  0  0  0
  2  1  2  0
  3  2  1  0
  4  1  1  0
  5  4  1  0
  5  3  2  0
  6  1  1  0
  7  5  1  0
  8  7  1  0
  9  8  1  0
 10  9  2  0
 11  9  1  0
 12 10  1  0
 13 11  2  0
 14 13  1  0
 14 12  2  0
 15 14  1  0
 16 15  1  0
 16 17  1  1
 18 16  1  0
 19 18  1  0
 20 19  1  0
 21 20  1  0
M  END
>  <SMILES>  (50) 
Cc1ccc(COc2ccc(OC(C)CCCS)cc2)o1

>  <scaffold>  (50) 
furan

$$$$
