
     RDKit          3D

 19 19  0  0  0  0  0  0  0  0999 V2000
    0.0000    0.0000    0.0000 C   0  0  0  0  0  0  0  0  0  0  0  0
    0.0000    0.0000    1.3862 C   0  0  0  0  0  0  0  0  0  0  0  0
    1.2134    0.0000    1.8569 O   0  0  0  0  0  0  0  0  0  0  0  0
    1.4215    0.1400   -0.4355 C   0  0  0  0  0  0  0  0  0  0  0  0
    2.1186    0.0436    0.8051 C   0  0  0  0  0  0  0  0  0  0  0  0
    3.3268    0.0579    0.9340 O   0  0  0  0  0  0  0  0  0  0  0  0
    1.9327    0.3324   -1.5287 O   0  0  0  0  0  0  0  0  0  0  0  0
   -0.9875   -0.1465   -0.8929 N   0  0  0  0  0  0  0  0  0  0  0  0
   -0.9909   -0.4953   -2.2263 C   0  0  0  0  0  0  0  0  0  0  0  0
   -1.9763   -0.3680   -3.1359 C   0  0  0  0  0  0  0  0  0  0  0  0
   -1.2045   -0.0592    2.2523 C   0  0  0  0  0  0  0  0  0  0  0  0
   -1.9435   -0.8746   -4.7619 Cl  0  0  0  0  0  0  0  0  0  0  0  0
    0.4704   -1.2427   -2.7505 Cl  0  0  0  0  0  0  0  0  0  0  0  0
   -2.2508    0.8891    1.8217 N   0  0  0  0  0  0  0  0  0  0  0  0
   -1.8856    2.3078    2.0046 C   0  0  0  0  0  0  0  0  0  0  0  0
   -3.4608    0.3113   -2.6494 Cl  0  0  0  0  0  0  0  0  0  0  0  0
   -3.5793    0.6640    2.4652 C   0  0  0  0  0  0  0  0  0  0  0  0
   -3.2040    2.9903    1.6435 C   0  0  0  0  0  0  0  0  0  0  0  0
   -4.5883    1.2074    1.4813 C   0  0  0  0  0  0  0  0  0  0  0  0
  1  2  2  0
  1  4  1  0
  1  8  1  0
  2  3  1  0
  2 11  1  0
  3  5  1  0
  4  5  1  0
  4  7  2  0
  5  6  2  0
  8  9  1  0
  9 10  2  3
  9 13  1  0
 10 12  1  0
 10 16  1  0
 11 14  1  0
 14 15  1  0
 14 17  1  0
 15 18  1  0
 17 19  1  0
M  END

$$$$

     RDKit          3D

 32 35  0  0  0  0  0  0  0  0999 V2000
    0.0000    0.0000    0.0000 C   0  0  0  0  0  0  0  0  0  0  0  0
    0.0000    0.0000    1.3704 C   0  0  0  0  0  0  0  0  0  0  0  0
    1.3225    0.0000    1.7857 C   0  0  0  0  0  0  0  0  0  0  0  0
    1.3195    0.1300   -0.4043 C   0  0  0  0  0  0  0  0  0  0  0  0
    2.1329    0.0498    0.7349 O   0  0  0  0  0  0  0  0  0  0  0  0
    1.8831    0.1300   -1.6970 C   0  0  0  0  0  0  0  0  0  0  0  0
    3.2678    0.2253   -1.8272 C   0  0  0  0  0  0  0  0  0  0  0  0
    4.0259    0.0687   -3.3666 S   0  0  0  0  0  0  0  0  0  0  0  0
    4.2019    0.4793   -0.4017 S   0  0  0  0  0  0  0  0  0  0  0  0
    1.8613    0.0531    3.0276 N   0  0  0  0  0  0  0  0  0  0  0  0
    5.7781    0.8456   -1.3540 C   0  0  0  0  0  0  0  0  0  0  0  0
    5.7001   -0.1697   -2.5757 C   0  0  0  0  0  0  0  0  0  0  0  0
    1.0344    0.1050   -2.7428 O   0  0  0  0  0  0  0  0  0  0  0  0
    3.1672    0.6736    3.2267 C   0  0  0  0  0  0  0  0  0  0  0  0
    7.0681    0.5812   -0.6141 C   0  0  0  0  0  0  0  0  0  0  0  0
    3.4701    1.7627    2.2248 C   0  0  0  0  0  0  0  0  0  0  0  0
    2.5153    2.7593    1.9356 C   0  0  0  0  0  0  0  0  0  0  0  0
    4.6818    1.8366    1.5721 C   0  0  0  0  0  0  0  0  0  0  0  0
    2.6355    3.6070    0.8354 C   0  0  0  0  0  0  0  0  0  0  0  0
    4.8321    2.7228    0.5273 C   0  0  0  0  0  0  0  0  0  0  0  0
    3.8296    3.5564    0.1177 C   0  0  0  0  0  0  0  0  0  0  0  0
    1.5523    4.3667    0.4491 O   0  0  0  0  0  0  0  0  0  0  0  0
    1.6892    5.7409    0.6397 C   0  0  0  0  0  0  0  0  0  0  0  0
    2.6767    6.5428    0.0694 C   0  0  0  0  0  0  0  0  0  0  0  0
    0.6969    6.2998    1.4300 C   0  0  0  0  0  0  0  0  0  0  0  0
    2.6756    7.9186    0.2949 C   0  0  0  0  0  0  0  0  0  0  0  0
    0.6943    7.6845    1.6504 C   0  0  0  0  0  0  0  0  0  0  0  0
    1.6592    8.4303    1.1002 C   0  0  0  0  0  0  0  0  0  0  0  0
    3.7036    8.8789   -0.2061 C   0  0  0  0  0  0  0  0  0  0  0  0
    3.6610    5.9455   -0.8815 C   0  0  0  0  0  0  0  0  0  0  0  0
    6.5041    2.7278   -0.3735 Br  0  0  0  0  0  0  0  0  0  0  0  0
   -0.3576    8.1214    2.3980 O   0  0  0  0  0  0  0  0  0  0  0  0
  1  2  1  0
  1  4  2  0
  2  3  2  0
  3  5  1  0
  3 10  1  0
  4  5  1  0
  4  6  1  0
  6  7  1  0
  6 13  1  0
  7  8  1  0
  7  9  1  0
  8 12  1  0
  9 11  1  0
 10 14  1  0
 11 12  1  0
 11 15  1  0
 14 16  1  0
 16 17  2  0
 16 18  1  0
 17 19  1  0
 18 20  2  0
 19 21  2  0
 19 22  1  0
 20 21  1  0
 20 31  1  0
 22 23  1  0
 23 24  2  0
 23 25  1  0
 24 26  1  0
 24 30  1  0
 25 27  2  0
 26 28  2  0
 26 29  1  0
 27 28  1  0
 27 32  1  0
M  END

$$$$

     RDKit          3D

 31 34  0  0  0  0  0  0  0  0999 V2000
    0.0000    0.0000    0.0000 C   0  0  0  0  0  0  0  0  0  0  0  0
    0.0000    0.0000    1.3704 C   0  0  0  0  0  0  0  0  0  0  0  0
    1.2264    0.0000    1.8695 O   0  0  0  0  0  0  0  0  0  0  0  0
    1.3722    0.0000   -0.4184 C   0  0  0  0  0  0  0  0  0  0  0  0
    2.1301    0.0542    0.7696 C   0  0  0  0  0  0  0  0  0  0  0  0
    2.0619   -0.0543   -1.6380 C   0  0  0  0  0  0  0  0  0  0  0  0
    3.5156    0.0161    0.7837 C   0  0  0  0  0  0  0  0  0  0  0  0
    3.4530   -0.0817   -1.5507 C   0  0  0  0  0  0  0  0  0  0  0  0
    4.1481   -0.0206   -0.4314 C   0  0  0  0  0  0  0  0  0  0  0  0
    1.3307   -0.1372   -2.9571 C   0  0  0  0  0  0  0  0  0  0  0  0
   -1.1908    0.0585   -0.8562 C   0  0  0  0  0  0  0  0  0  0  0  0
   -2.3179   -0.0525   -0.4558 O   0  0  0  0  0  0  0  0  0  0  0  0
    2.0812    0.6017   -4.0036 N   0  0  0  0  0  0  0  0  0  0  0  0
    4.0807   -0.0851   -2.7601 O   0  0  0  0  0  0  0  0  0  0  0  0
    1.5685    0.3078   -5.3657 C   0  0  0  0  0  0  0  0  0  0  0  0
    2.0752    2.0458   -3.7409 C   0  0  0  0  0  0  0  0  0  0  0  0
   -0.9368    0.2887   -2.1669 O   0  0  0  0  0  0  0  0  0  0  0  0
    2.2369    1.2780   -6.3932 C   0  0  0  0  0  0  0  0  0  0  0  0
   -2.0013    0.4212   -3.0822 C   0  0  0  0  0  0  0  0  0  0  0  0
   -2.8027    1.5668   -2.9759 C   0  0  0  0  0  0  0  0  0  0  0  0
   -2.2431   -0.5707   -4.0197 C   0  0  0  0  0  0  0  0  0  0  0  0
   -3.8776    1.6300   -3.8739 C   0  0  0  0  0  0  0  0  0  0  0  0
   -3.2401   -0.4624   -4.9652 C   0  0  0  0  0  0  0  0  0  0  0  0
   -4.1235    0.6199   -4.8029 C   0  0  0  0  0  0  0  0  0  0  0  0
   -4.8364    2.7627   -3.8275 C   0  0  0  0  0  0  0  0  0  0  0  0
   -2.5310    2.6401   -1.9993 C   0  0  0  0  0  0  0  0  0  0  0  0
   -1.2792    3.2350   -2.0210 C   0  0  0  0  0  0  0  0  0  0  0  0
   -3.4368    3.0706   -0.9965 C   0  0  0  0  0  0  0  0  0  0  0  0
   -0.9948    4.2805   -1.1563 C   0  0  0  0  0  0  0  0  0  0  0  0
   -3.1541    4.1235   -0.1276 C   0  0  0  0  0  0  0  0  0  0  0  0
   -1.9417    4.6916   -0.2312 C   0  0  0  0  0  0  0  0  0  0  0  0
  1  2  2  0
  1  4  1  0
  1 11  1  0
  2  3  1  0
  3  5  1  0
  4  5  2  0
  4  6  1  0
  5  7  1  0
  6  8  2  0
  6 10  1  0
  7  9  2  0
  8  9  1  0
  8 14  1  0
 10 13  1  0
 11 12  2  0
 11 17  1  0
 13 15  1  0
 13 16  1  0
 15 18  1  0
 17 19  1  0
 19 20  1  0
 19 21  2  0
 20 22  2  0
 20 26  1  0
 21 23  1  0
 22 24  1  0
 22 25  1  0
 23 24  2  0
 26 27  2  0
 26 28  1  0
 27 29  1  0
 28 30  2  0
 29 31  2  0
 30 31  1  0
M  END

$$$$

     RDKit          3D

 30 32  0  0  0  0  0  0  0  0999 V2000
    0.0000    0.0000    0.0000 O   0  0  0  0  0  0  0  0  0  0  0  0
    0.0000    0.0000    1.2721 C   0  0  0  0  0  0  0  0  0  0  0  0
    1.3047    0.0000    1.8283 C   0  0  0  0  0  0  0  0  0  0  0  0
    1.2256    0.0602   -0.4338 C   0  0  0  0  0  0  0  0  0  0  0  0
    2.1183    0.0501    0.6787 C   0  0  0  0  0  0  0  0  0  0  0  0
    3.3958    0.0626    0.2765 O   0  0  0  0  0  0  0  0  0  0  0  0
    1.6412    0.2567   -1.8818 C   0  0  0  0  0  0  0  0  0  0  0  0
    2.6573    0.8957   -2.1113 O   0  0  0  0  0  0  0  0  0  0  0  0
    0.5962   -0.0736   -2.9589 C   0  0  0  0  0  0  0  0  0  0  0  0
    1.7125    0.2563    3.1112 O   0  0  0  0  0  0  0  0  0  0  0  0
    0.9073   -0.2566    4.1163 C   0  0  0  0  0  0  0  0  0  0  0  0
   -0.3074    0.3437    4.4445 C   0  0  0  0  0  0  0  0  0  0  0  0
    1.3821   -1.3699    4.8082 C   0  0  0  0  0  0  0  0  0  0  0  0
   -1.1199   -0.2471    5.4457 C   0  0  0  0  0  0  0  0  0  0  0  0
    0.6300   -1.8903    5.8603 C   0  0  0  0  0  0  0  0  0  0  0  0
   -0.6056   -1.3506    6.1412 C   0  0  0  0  0  0  0  0  0  0  0  0
   -2.3195    0.2050    5.8062 O   0  0  0  0  0  0  0  0  0  0  0  0
   -0.8782    0.9596   -2.8475 S   0  0  0  0  0  0  0  0  0  0  0  0
   -0.7536    1.6805    3.9011 C   0  0  0  0  0  0  0  0  0  0  0  0
   -0.0662   -1.4508   -2.7985 C   0  0  0  0  0  0  0  0  0  0  0  0
    1.1200   -3.0477    6.6666 C   0  0  0  0  0  0  0  0  0  0  0  0
   -1.3461   -1.3211   -2.0404 N   0  0  0  0  0  0  0  0  0  0  0  0
    2.5530   -1.8819    4.4074 O   0  0  0  0  0  0  0  0  0  0  0  0
   -2.5177   -1.0638   -2.9008 C   0  0  0  0  0  0  0  0  0  0  0  0
   -2.7886   -2.2677   -3.7718 C   0  0  0  0  0  0  0  0  0  0  0  0
   -3.1352   -2.1073   -5.0960 C   0  0  0  0  0  0  0  0  0  0  0  0
   -2.7487   -3.5507   -3.2075 C   0  0  0  0  0  0  0  0  0  0  0  0
   -3.4446   -3.1913   -5.9298 C   0  0  0  0  0  0  0  0  0  0  0  0
   -3.0373   -4.6745   -3.9514 C   0  0  0  0  0  0  0  0  0  0  0  0
   -3.4104   -4.4634   -5.4429 C   0  0  0  0  0  0  0  0  0  0  0  0
  1  2  1  0
  1  4  1  0
  2  3  2  0
  3  5  1  0
  3 10  1  0
  4  5  2  0
  4  7  1  0
  5  6  1  0
  7  8  2  0
  7  9  1  0
  9 18  1  0
  9 20  1  0
 10 11  1  0
 11 12  2  0
 11 13  1  0
 12 14  1  0
 12 19  1  0
 13 15  2  0
 13 23  1  0
 14 16  2  0
 14 17  1  0
 15 16  1  0
 15 21  1  0
 20 22  1  0
 22 24  1  0
 24 25  1  0
 25 26  2  0
 25 27  1  0
 26 28  1  0
 27 29  2  0
 28 30  2  0
 29 30  1  0
M  END

$$$$

     RDKit          3D

 23 26  0  0  0  0  0  0  0  0999 V2000
    0.0000    0.0000    0.0000 C   0  0  0  0  0  0  0  0  0  0  0  0
    0.0000    0.0000    1.4678 C   0  0  0  0  0  0  0  0  0  0  0  0
    1.3306    0.0000    1.9099 C   0  0  0  0  0  0  0  0  0  0  0  0
    1.3635    0.0000   -0.2904 C   0  0  0  0  0  0  0  0  0  0  0  0
    2.2245    0.0521    0.7845 O   0  0  0  0  0  0  0  0  0  0  0  0
   -1.0319   -0.0507    2.3919 C   0  0  0  0  0  0  0  0  0  0  0  0
   -0.6792   -0.0889    3.7484 C   0  0  0  0  0  0  0  0  0  0  0  0
    0.6806   -0.0750    4.1218 C   0  0  0  0  0  0  0  0  0  0  0  0
    1.7011   -0.0249    3.2086 C   0  0  0  0  0  0  0  0  0  0  0  0
   -0.9795   -0.2454   -0.9032 N   0  0  0  0  0  0  0  0  0  0  0  0
   -0.9866    0.4706   -2.1654 C   0  0  0  0  0  0  0  0  0  0  0  0
   -1.5827   -0.0870    4.7267 O   0  0  0  0  0  0  0  0  0  0  0  0
   -1.8448    1.7286   -1.9604 C   0  0  0  0  0  0  0  0  0  0  0  0
    1.8932    0.0522   -1.5112 N   0  0  0  0  0  0  0  0  0  0  0  0
    1.9153    0.9281   -2.4132 C   0  0  0  0  0  0  0  0  0  0  0  0
   -2.6813   -0.0507    1.9661 Cl  0  0  0  0  0  0  0  0  0  0  0  0
    1.4325    2.3582   -2.3557 C   0  0  0  0  0  0  0  0  0  0  0  0
   -3.1340    1.4311   -1.5210 O   0  0  0  0  0  0  0  0  0  0  0  0
   -2.2963   -0.6448   -0.4167 C   0  0  0  0  0  0  0  0  0  0  0  0
    2.5105    0.8337   -3.7889 C   0  0  0  0  0  0  0  0  0  0  0  0
   -3.1327    0.7342   -0.3043 C   0  0  0  0  0  0  0  0  0  0  0  0
    1.7709    2.8417   -3.6364 O   0  0  0  0  0  0  0  0  0  0  0  0
    2.0609    2.0260   -4.6477 C   0  0  0  0  0  0  0  0  0  0  0  0
  1  2  1  0
  1  4  2  0
  1 10  1  0
  2  3  2  0
  2  6  1  0
  3  5  1  0
  3  9  1  0
  4  5  1  0
  4 14  1  0
  6  7  2  0
  6 16  1  0
  7  8  1  0
  7 12  1  0
  8  9  2  0
 10 11  1  0
 10 19  1  0
 11 13  1  0
 13 18  1  0
 14 15  2  3
 15 17  1  0
 15 20  1  0
 17 22  1  0
 18 21  1  0
 19 21  1  0
 20 23  1  0
 22 23  1  0
M  END

$$$$

     RDKit          3D

 30 33  0  0  0  0  0  0  0  0999 V2000
    0.0000    0.0000    0.0000 C   0  0  0  0  0  0  0  0  0  0  0  0
    0.0000    0.0000    1.3548 C   0  0  0  0  0  0  0  0  0  0  0  0
    1.3156    0.0000    1.8160 O   0  0  0  0  0  0  0  0  0  0  0  0
    1.4053   -0.1384   -0.4306 C   0  0  0  0  0  0  0  0  0  0  0  0
    2.1433   -0.1582    0.7239 C   0  0  0  0  0  0  0  0  0  0  0  0
   -1.1572   -0.0568   -0.8321 C   0  0  0  0  0  0  0  0  0  0  0  0
   -1.2176    0.1312   -2.1110 N   0  0  0  0  0  0  0  0  0  0  0  0
   -2.3754   -0.3620   -0.3240 O   0  0  0  0  0  0  0  0  0  0  0  0
   -2.5445    0.0177   -2.3990 N   0  0  0  0  0  0  0  0  0  0  0  0
   -3.2436   -0.2825   -1.3307 C   0  0  0  0  0  0  0  0  0  0  0  0
   -1.1117   -0.0546    2.3503 C   0  0  0  0  0  0  0  0  0  0  0  0
    3.4621   -0.3167    0.9477 N   0  0  0  0  0  0  0  0  0  0  0  0
   -0.8252   -1.1984    3.2943 C   0  0  0  0  0  0  0  0  0  0  0  0
   -0.6742   -2.4934    2.7784 C   0  0  0  0  0  0  0  0  0  0  0  0
   -0.7840   -0.9335    4.6543 C   0  0  0  0  0  0  0  0  0  0  0  0
   -0.3653   -3.5533    3.5903 C   0  0  0  0  0  0  0  0  0  0  0  0
   -0.4691   -2.0035    5.4773 C   0  0  0  0  0  0  0  0  0  0  0  0
   -0.1841   -3.3839    4.9950 C   0  0  0  0  0  0  0  0  0  0  0  0
    0.0682   -4.5197    5.7041 O   0  0  0  0  0  0  0  0  0  0  0  0
    0.3210   -4.4765    7.0990 C   0  0  0  0  0  0  0  0  0  0  0  0
   -0.1421   -4.8400    3.2016 O   0  0  0  0  0  0  0  0  0  0  0  0
   -0.2420   -5.0920    1.8259 C   0  0  0  0  0  0  0  0  0  0  0  0
    1.8845   -0.2407   -1.7357 C   0  0  0  0  0  0  0  0  0  0  0  0
    2.1954   -0.3199   -2.8512 N   0  0  0  0  0  0  0  0  0  0  0  0
    1.6346   -3.8167    7.4464 C   0  0  0  0  0  0  0  0  0  0  0  0
    1.6943   -2.8077    8.4065 C   0  0  0  0  0  0  0  0  0  0  0  0
    2.8160   -4.2289    6.8317 C   0  0  0  0  0  0  0  0  0  0  0  0
    2.9138   -2.1978    8.6561 C   0  0  0  0  0  0  0  0  0  0  0  0
    4.0155   -3.6310    7.0771 C   0  0  0  0  0  0  0  0  0  0  0  0
    4.0933   -2.5278    8.0071 C   0  0  0  0  0  0  0  0  0  0  0  0
  1  2  2  0
  1  4  1  0
  1  6  1  0
  2  3  1  0
  2 11  1  0
  3  5  1  0
  4  5  2  0
  4 23  1  0
  5 12  1  0
  6  7  2  0
  6  8  1  0
  7  9  1  0
  8 10  1  0
  9 10  2  0
 11 13  1  0
 13 14  1  0
 13 15  2  0
 14 16  2  0
 15 17  2  0
 16 18  1  0
 16 21  1  0
 17 18  1  0
 18 19  1  0
 19 20  1  0
 20 25  1  0
 21 22  1  0
 23 24  3  0
 25 26  2  0
 25 27  1  0
 26 28  1  0
 27 29  2  0
 28 30  2  0
 29 30  1  0
M  END

$$$$

     RDKit          3D

 22 24  0  0  0  0  0  0  0  0999 V2000
    0.0000    0.0000    0.0000 C   0  0  0  0  0  0  0  0  0  0  0  0
    0.0000    0.0000    1.3625 C   0  0  0  0  0  0  0  0  0  0  0  0
    1.3065    0.0000    1.7494 C   0  0  0  0  0  0  0  0  0  0  0  0
    1.3050   -0.1936   -0.3406 C   0  0  0  0  0  0  0  0  0  0  0  0
    2.1524   -0.1648    0.7160 O   0  0  0  0  0  0  0  0  0  0  0  0
    1.9505   -0.3478   -1.6688 C   0  0  0  0  0  0  0  0  0  0  0  0
    1.9439    0.1708    3.0699 C   0  0  0  0  0  0  0  0  0  0  0  0
    0.9860    1.2738    4.1630 S   0  0  0  0  0  0  0  0  0  0  0  0
    1.1565    2.9702    3.4290 C   0  0  0  0  0  0  0  0  0  0  0  0
    0.7989    2.9576    2.0055 C   0  0  0  0  0  0  0  0  0  0  0  0
   -0.4165    2.9377    1.3900 C   0  0  0  0  0  0  0  0  0  0  0  0
    1.8158    2.9063    1.1353 O   0  0  0  0  0  0  0  0  0  0  0  0
   -0.1262    2.7681   -0.0046 C   0  0  0  0  0  0  0  0  0  0  0  0
    1.2687    2.7519   -0.0859 N   0  0  0  0  0  0  0  0  0  0  0  0
   -1.0553    2.6238   -1.1099 C   0  0  0  0  0  0  0  0  0  0  0  0
   -0.5003    2.4144   -2.3893 C   0  0  0  0  0  0  0  0  0  0  0  0
   -2.4267    2.6430   -0.8600 C   0  0  0  0  0  0  0  0  0  0  0  0
   -1.4317    2.2321   -3.4105 C   0  0  0  0  0  0  0  0  0  0  0  0
   -3.3458    2.4604   -1.8707 C   0  0  0  0  0  0  0  0  0  0  0  0
   -2.7829    2.2337   -3.3125 C   0  0  0  0  0  0  0  0  0  0  0  0
    0.8445    2.3350   -2.6801 N   0  0  0  0  0  0  0  0  0  0  0  0
   -5.0361    2.4328   -1.4896 Cl  0  0  0  0  0  0  0  0  0  0  0  0
  1  2  1  0
  1  4  2  0
  2  3  2  0
  3  5  1  0
  3  7  1  0
  4  5  1  0
  4  6  1  0
  7  8  1  0
  8  9  1  0
  9 10  1  0
 10 11  2  0
 10 12  1  0
 11 13  1  0
 12 14  1  0
 13 14  2  0
 13 15  1  0
 15 16  1  0
 15 17  1  0
 16 18  1  0
 16 21  1  0
 17 19  2  0
 18 20  2  0
 19 20  1  0
 19 22  1  0
M  END

$$$$

     RDKit          3D

 25 26  0  0  0  0  0  0  0  0999 V2000
    0.0000    0.0000    0.0000 C   0  0  0  0  0  0  0  0  0  0  0  0
    0.0000    0.0000    1.3862 C   0  0  0  0  0  0  0  0  0  0  0  0
    1.2134    0.0000    1.8569 O   0  0  0  0  0  0  0  0  0  0  0  0
    1.4215    0.1400   -0.4355 C   0  0  0  0  0  0  0  0  0  0  0  0
    2.1186    0.0436    0.8051 C   0  0  0  0  0  0  0  0  0  0  0  0
    3.2981    0.0504    0.9935 O   0  0  0  0  0  0  0  0  0  0  0  0
   -1.1524    0.0000    2.3088 C   0  0  0  0  0  0  0  0  0  0  0  0
    1.8858    0.3323   -1.5883 O   0  0  0  0  0  0  0  0  0  0  0  0
   -0.9513   -0.0499   -0.9524 N   0  0  0  0  0  0  0  0  0  0  0  0
   -2.1400   -0.3518   -0.7979 N   0  0  0  0  0  0  0  0  0  0  0  0
   -2.7409   -0.8933    0.3180 C   0  0  0  0  0  0  0  0  0  0  0  0
   -2.2980   -2.1017    0.8943 C   0  0  0  0  0  0  0  0  0  0  0  0
   -3.9044   -0.3088    0.8164 C   0  0  0  0  0  0  0  0  0  0  0  0
   -3.0812   -2.5989    1.9136 C   0  0  0  0  0  0  0  0  0  0  0  0
   -4.6160   -0.7831    1.8772 C   0  0  0  0  0  0  0  0  0  0  0  0
   -4.2366   -2.0438    2.4200 C   0  0  0  0  0  0  0  0  0  0  0  0
   -5.0126   -2.5896    3.5510 C   0  0  0  0  0  0  0  0  0  0  0  0
   -4.6121   -3.5883    4.0696 O   0  0  0  0  0  0  0  0  0  0  0  0
   -5.9460    0.0698    2.5396 Cl  0  0  0  0  0  0  0  0  0  0  0  0
   -6.1706   -1.9787    3.9282 O   0  0  0  0  0  0  0  0  0  0  0  0
   -0.9377   -2.9723    0.3227 Cl  0  0  0  0  0  0  0  0  0  0  0  0
   -6.8344   -2.3328    5.1209 C   0  0  0  0  0  0  0  0  0  0  0  0
   -6.1289   -1.7514    6.3451 C   0  0  0  0  0  0  0  0  0  0  0  0
   -6.4126   -2.0182    7.4743 O   0  0  0  0  0  0  0  0  0  0  0  0
   -5.1357   -0.9219    6.0310 O   0  0  0  0  0  0  0  0  0  0  0  0
  1  2  2  0
  1  4  1  0
  1  9  1  0
  2  3  1  0
  2  7  1  0
  3  5  1  0
  4  5  1  0
  4  8  2  0
  5  6  2  0
  9 10  2  3
 10 11  1  0
 11 12  2  0
 11 13  1  0
 12 14  1  0
 12 21  1  0
 13 15  2  0
 14 16  2  0
 15 16  1  0
 15 19  1  0
 16 17  1  0
 17 18  2  0
 17 20  1  0
 20 22  1  0
 22 23  1  0
 23 24  2  0
 23 25  1  0
M  END

$$$$

     RDKit          3D

 31 33  0  0  0  0  0  0  0  0999 V2000
    0.0000    0.0000    0.0000 C   0  0  0  0  0  0  0  0  0  0  0  0
    0.0000    0.0000    1.3625 C   0  0  0  0  0  0  0  0  0  0  0  0
    1.2705    0.0000    1.7615 O   0  0  0  0  0  0  0  0  0  0  0  0
    1.3743   -0.0675   -0.4865 C   0  0  0  0  0  0  0  0  0  0  0  0
    2.1731   -0.0544    0.6269 C   0  0  0  0  0  0  0  0  0  0  0  0
    3.6149   -0.1534    0.8837 C   0  0  0  0  0  0  0  0  0  0  0  0
    4.3966   -0.3416   -0.0553 O   0  0  0  0  0  0  0  0  0  0  0  0
    1.7782   -0.0344   -1.7630 O   0  0  0  0  0  0  0  0  0  0  0  0
   -1.1071    0.0000   -0.8864 C   0  0  0  0  0  0  0  0  0  0  0  0
   -2.3071    0.1780   -0.4575 N   0  0  0  0  0  0  0  0  0  0  0  0
    4.0408   -0.0454    2.1570 N   0  0  0  0  0  0  0  0  0  0  0  0
   -3.3676    0.1388   -1.2367 N   0  0  0  0  0  0  0  0  0  0  0  0
   -4.6091    0.4609   -0.7542 C   0  0  0  0  0  0  0  0  0  0  0  0
   -5.6341    0.6193   -1.5157 N   0  0  0  0  0  0  0  0  0  0  0  0
    5.4113   -0.0582    2.6081 C   0  0  0  0  0  0  0  0  0  0  0  0
    6.0661    1.3302    2.6777 C   0  0  0  0  0  0  0  0  0  0  0  0
   -5.6303    0.4948   -2.8493 N   0  0  0  0  0  0  0  0  0  0  0  0
    5.8087    2.0485    3.8540 O   0  0  0  0  0  0  0  0  0  0  0  0
   -4.6207    0.6468    0.5799 N   0  0  0  0  0  0  0  0  0  0  0  0
   -6.6640    0.6979   -3.6888 C   0  0  0  0  0  0  0  0  0  0  0  0
   -6.5515    0.4898   -5.0149 N   0  0  0  0  0  0  0  0  0  0  0  0
   -7.8214    1.0662   -3.1064 N   0  0  0  0  0  0  0  0  0  0  0  0
   -7.4550    0.6983   -5.9175 N   0  0  0  0  0  0  0  0  0  0  0  0
   -8.7300    1.2819   -4.0130 C   0  0  0  0  0  0  0  0  0  0  0  0
   -8.5662    1.1668   -5.3526 C   0  0  0  0  0  0  0  0  0  0  0  0
   -9.5310    1.4475   -6.2729 N   0  0  0  0  0  0  0  0  0  0  0  0
  -10.8198    1.7552   -5.7017 C   0  0  0  0  0  0  0  0  0  0  0  0
   -9.4671    1.0439   -7.6653 C   0  0  0  0  0  0  0  0  0  0  0  0
   -9.8534   -0.4103   -7.7971 C   0  0  0  0  0  0  0  0  0  0  0  0
   -9.2225   -1.2169   -8.8957 C   0  0  0  0  0  0  0  0  0  0  0  0
   -8.8738   -1.4396   -7.4609 C   0  0  0  0  0  0  0  0  0  0  0  0
  1  2  2  0
  1  4  1  0
  1  9  1  0
  2  3  1  0
  3  5  1  0
  4  5  2  0
  4  8  1  0
  5  6  1  0
  6  7  2  0
  6 11  1  0
  9 10  2  3
 10 12  1  0
 11 15  1  0
 12 13  1  0
 13 14  2  3
 13 19  1  0
 14 17  1  0
 15 16  1  0
 16 18  1  0
 17 20  1  0
 20 21  2  0
 20 22  1  0
 21 23  1  0
 22 24  2  0
 23 25  2  0
 24 25  1  0
 25 26  1  0
 26 27  1  0
 26 28  1  0
 28 29  1  0
 29 30  1  0
 29 31  1  0
 30 31  1  0
M  END

$$$$

     RDKit          3D

 22 23  0  0  0  0  0  0  0  0999 V2000
    0.0000    0.0000    0.0000 C   0  0  0  0  0  0  0  0  0  0  0  0
    0.0000    0.0000    1.4346 C   0  0  0  0  0  0  0  0  0  0  0  0
    1.3599    0.0000    1.7416 C   0  0  0  0  0  0  0  0  0  0  0  0
    1.2487    0.0000   -0.5051 C   0  0  0  0  0  0  0  0  0  0  0  0
    2.1196    0.0527    0.5822 O   0  0  0  0  0  0  0  0  0  0  0  0
    2.0187   -0.0519    2.9066 N   0  0  0  0  0  0  0  0  0  0  0  0
   -1.2059    0.0000    2.2117 C   0  0  0  0  0  0  0  0  0  0  0  0
   -1.3851   -0.0480    3.4126 O   0  0  0  0  0  0  0  0  0  0  0  0
    1.7733    0.0591   -1.9112 C   0  0  0  0  0  0  0  0  0  0  0  0
    1.4920   -0.6036    4.1411 C   0  0  0  0  0  0  0  0  0  0  0  0
    2.6022   -1.1890   -2.2522 C   0  0  0  0  0  0  0  0  0  0  0  0
    2.1015   -2.0117    4.3260 C   0  0  0  0  0  0  0  0  0  0  0  0
    3.4465    0.0272    2.7914 C   0  0  0  0  0  0  0  0  0  0  0  0
    2.5799    1.3638   -2.1623 C   0  0  0  0  0  0  0  0  0  0  0  0
    3.5114   -1.9846    4.3180 O   0  0  0  0  0  0  0  0  0  0  0  0
    1.9608    2.5216   -1.3980 C   0  0  0  0  0  0  0  0  0  0  0  0
    2.5246    3.1283   -0.5089 O   0  0  0  0  0  0  0  0  0  0  0  0
    2.5853    1.7523   -3.6399 C   0  0  0  0  0  0  0  0  0  0  0  0
    0.5180    0.1280   -2.7948 C   0  0  0  0  0  0  0  0  0  0  0  0
    4.0374   -1.4617    3.1091 C   0  0  0  0  0  0  0  0  0  0  0  0
    5.5597   -1.5436    3.2096 C   0  0  0  0  0  0  0  0  0  0  0  0
    0.7266    2.8795   -1.7757 N   0  0  0  0  0  0  0  0  0  0  0  0
  1  2  1  0
  1  4  2  0
  2  3  2  0
  2  7  1  0
  3  5  1  0
  3  6  1  0
  4  5  1  0
  4  9  1  0
  6 10  1  0
  6 13  1  0
  7  8  2  0
  9 11  1  0
  9 14  1  0
  9 19  1  0
 10 12  1  0
 12 15  1  0
 13 20  1  0
 14 16  1  0
 14 18  1  0
 15 20  1  0
 16 17  2  0
 16 22  1  0
 20 21  1  0
M  END

$$$$

     RDKit          3D

 28 32  0  0  0  0  0  0  0  0999 V2000
    0.0000    0.0000    0.0000 C   0  0  0  0  0  0  0  0  0  0  0  0
    0.0000    0.0000    1.4102 O   0  0  0  0  0  0  0  0  0  0  0  0
    1.3614    0.0000    1.6708 C   0  0  0  0  0  0  0  0  0  0  0  0
    1.2831    0.0630   -0.4542 C   0  0  0  0  0  0  0  0  0  0  0  0
    2.1261    0.0535    0.5964 C   0  0  0  0  0  0  0  0  0  0  0  0
   -1.2180    0.0000   -0.6281 N   0  0  0  0  0  0  0  0  0  0  0  0
    1.8654   -0.0568    3.0216 C   0  0  0  0  0  0  0  0  0  0  0  0
    1.0051   -0.1138    4.1171 C   0  0  0  0  0  0  0  0  0  0  0  0
    3.2657   -0.0033    3.2400 C   0  0  0  0  0  0  0  0  0  0  0  0
    1.4322   -0.2171    5.3986 C   0  0  0  0  0  0  0  0  0  0  0  0
    3.6351   -0.0125    4.6262 C   0  0  0  0  0  0  0  0  0  0  0  0
    4.2984    0.1021    2.2976 C   0  0  0  0  0  0  0  0  0  0  0  0
    2.7323   -0.2679    5.6446 N   0  0  0  0  0  0  0  0  0  0  0  0
    5.0236    0.0908    4.8958 C   0  0  0  0  0  0  0  0  0  0  0  0
    5.6073    0.1971    2.6341 C   0  0  0  0  0  0  0  0  0  0  0  0
    5.9366    0.1917    3.8894 C   0  0  0  0  0  0  0  0  0  0  0  0
    7.4192    0.3697    3.8772 C   0  0  0  0  0  0  0  0  0  0  0  0
    5.4688    0.0315    6.3380 C   0  0  0  0  0  0  0  0  0  0  0  0
    7.7993    0.0055    2.4429 C   0  0  0  0  0  0  0  0  0  0  0  0
   -1.6726    0.1591   -1.9110 C   0  0  0  0  0  0  0  0  0  0  0  0
   -2.7806   -0.1661   -2.2894 O   0  0  0  0  0  0  0  0  0  0  0  0
    5.0808   -1.1183    6.9748 O   0  0  0  0  0  0  0  0  0  0  0  0
    6.5869    0.2178    1.5823 C   0  0  0  0  0  0  0  0  0  0  0  0
   -0.7110    0.7905   -2.8362 C   0  0  0  0  0  0  0  0  0  0  0  0
   -0.8061    0.7509   -4.2106 C   0  0  0  0  0  0  0  0  0  0  0  0
    0.2923    1.5936   -2.4327 O   0  0  0  0  0  0  0  0  0  0  0  0
    0.2802    1.5203   -4.6510 C   0  0  0  0  0  0  0  0  0  0  0  0
    0.9460    2.0428   -3.5025 C   0  0  0  0  0  0  0  0  0  0  0  0
  1  2  1  0
  1  4  2  0
  1  6  1  0
  2  3  1  0
  3  5  2  0
  3  7  1  0
  4  5  1  0
  6 20  1  0
  7  8  2  0
  7  9  1  0
  8 10  1  0
  9 11  2  0
  9 12  1  0
 10 13  2  0
 11 13  1  0
 11 14  1  0
 12 15  2  0
 14 16  2  0
 14 18  1  0
 15 16  1  0
 15 23  1  0
 16 17  1  0
 17 19  1  0
 18 22  1  0
 19 23  1  0
 20 21  2  0
 20 24  1  0
 24 25  2  0
 24 26  1  0
 25 27  1  0
 26 28  1  0
 27 28  2  0
M  END

$$$$

     RDKit          3D

 31 33  0  0  0  0  0  0  0  0999 V2000
    0.0000    0.0000    0.0000 C   0  0  0  0  0  0  0  0  0  0  0  0
    0.0000    0.0000    1.3470 C   0  0  0  0  0  0  0  0  0  0  0  0
    1.2444    0.0000    1.9019 O   0  0  0  0  0  0  0  0  0  0  0  0
    1.3405    0.0659   -0.3465 C   0  0  0  0  0  0  0  0  0  0  0  0
    2.0693    0.1541    0.8013 C   0  0  0  0  0  0  0  0  0  0  0  0
    3.4952    0.3044    1.0249 C   0  0  0  0  0  0  0  0  0  0  0  0
    3.9925    0.4266    2.3388 C   0  0  0  0  0  0  0  0  0  0  0  0
    4.3458    0.4455   -0.0807 C   0  0  0  0  0  0  0  0  0  0  0  0
    5.3734    0.5104    2.4256 C   0  0  0  0  0  0  0  0  0  0  0  0
    5.7191    0.5421    0.0811 C   0  0  0  0  0  0  0  0  0  0  0  0
    6.2065    0.4763    1.2983 C   0  0  0  0  0  0  0  0  0  0  0  0
    6.1899    0.6959    3.5804 N   0  0  0  0  0  0  0  0  0  0  0  0
    6.6559   -0.5545    4.1715 C   0  0  0  0  0  0  0  0  0  0  0  0
    7.4981    0.5208    1.6497 O   0  0  0  0  0  0  0  0  0  0  0  0
    3.8452    0.5005   -1.3468 O   0  0  0  0  0  0  0  0  0  0  0  0
    3.1090    0.4093    3.5426 C   0  0  0  0  0  0  0  0  0  0  0  0
    5.7034    1.6424    4.5791 C   0  0  0  0  0  0  0  0  0  0  0  0
    7.7058    0.4316    3.0748 C   0  0  0  0  0  0  0  0  0  0  0  0
    8.2609   -0.9557    3.3936 C   0  0  0  0  0  0  0  0  0  0  0  0
   -1.1840   -0.0582    2.1984 C   0  0  0  0  0  0  0  0  0  0  0  0
   -2.2703    0.8333    2.0809 C   0  0  0  0  0  0  0  0  0  0  0  0
   -1.2853   -1.0864    3.1225 C   0  0  0  0  0  0  0  0  0  0  0  0
   -3.4567    0.6079    2.7774 C   0  0  0  0  0  0  0  0  0  0  0  0
   -2.4783   -1.3032    3.8104 C   0  0  0  0  0  0  0  0  0  0  0  0
   -3.5382   -0.4577    3.6227 C   0  0  0  0  0  0  0  0  0  0  0  0
   -2.1769    1.8946    1.1941 N   0  0  0  0  0  0  0  0  0  0  0  0
    8.6414    1.5105    3.5927 C   0  0  0  0  0  0  0  0  0  0  0  0
    5.0716    0.8283    5.7070 C   0  0  0  0  0  0  0  0  0  0  0  0
   -2.5165   -2.3061    4.7550 N   0  0  0  0  0  0  0  0  0  0  0  0
   -3.7509   -3.0845    4.7720 C   0  0  0  0  0  0  0  0  0  0  0  0
   -1.3717   -3.0652    5.1687 C   0  0  0  0  0  0  0  0  0  0  0  0
  1  2  2  0
  1  4  1  0
  2  3  1  0
  2 20  1  0
  3  5  1  0
  4  5  2  0
  5  6  1  0
  6  7  2  0
  6  8  1  0
  7  9  1  0
  7 16  1  0
  8 10  2  0
  8 15  1  0
  9 11  2  0
  9 12  1  0
 10 11  1  0
 11 14  1  0
 12 13  1  0
 12 17  1  0
 14 18  1  0
 17 28  1  0
 18 19  1  0
 18 27  1  0
 20 21  2  0
 20 22  1  0
 21 23  1  0
 21 26  1  0
 22 24  2  0
 23 25  2  0
 24 25  1  0
 24 29  1  0
 29 30  1  0
 29 31  1  0
M  END

$$$$

     RDKit          3D

 24 25  0  0  0  0  0  0  0  0999 V2000
    0.0000    0.0000    0.0000 C   0  0  0  0  0  0  0  0  0  0  0  0
    0.0000    0.0000    1.4021 C   0  0  0  0  0  0  0  0  0  0  0  0
    1.2990    0.0000    1.7867 C   0  0  0  0  0  0  0  0  0  0  0  0
    1.3566    0.0000   -0.4137 C   0  0  0  0  0  0  0  0  0  0  0  0
    2.0973    0.0530    0.7474 O   0  0  0  0  0  0  0  0  0  0  0  0
   -1.0636    0.0000   -0.8516 N   0  0  0  0  0  0  0  0  0  0  0  0
    2.0503   -0.0546   -1.6402 C   0  0  0  0  0  0  0  0  0  0  0  0
    1.5969   -0.1315   -2.9311 C   0  0  0  0  0  0  0  0  0  0  0  0
    0.2127   -0.1775   -3.3643 C   0  0  0  0  0  0  0  0  0  0  0  0
   -0.7524   -0.3249   -2.5717 N   0  0  0  0  0  0  0  0  0  0  0  0
    0.0579   -0.0925   -4.7716 N   0  0  0  0  0  0  0  0  0  0  0  0
   -2.2841    0.0000   -0.3579 N   0  0  0  0  0  0  0  0  0  0  0  0
   -3.3702    0.0497   -0.9899 C   0  0  0  0  0  0  0  0  0  0  0  0
   -1.1152   -0.0531   -5.4940 C   0  0  0  0  0  0  0  0  0  0  0  0
   -2.1961   -0.0335   -4.9703 O   0  0  0  0  0  0  0  0  0  0  0  0
    1.1334    0.0733   -5.5785 N   0  0  0  0  0  0  0  0  0  0  0  0
    2.3518    0.1706   -5.2259 C   0  0  0  0  0  0  0  0  0  0  0  0
    2.9551    0.1130   -3.5704 S   0  0  0  0  0  0  0  0  0  0  0  0
   -3.6318    0.1235   -2.4757 C   0  0  0  0  0  0  0  0  0  0  0  0
   -0.8991   -0.0213   -6.9886 C   0  0  0  0  0  0  0  0  0  0  0  0
    3.3853    0.2906   -6.2732 C   0  0  0  0  0  0  0  0  0  0  0  0
    0.5874    0.0137   -7.2542 C   0  0  0  0  0  0  0  0  0  0  0  0
    1.1097    0.0920   -8.3408 O   0  0  0  0  0  0  0  0  0  0  0  0
   -4.8464   -0.0305   -0.1242 Cl  0  0  0  0  0  0  0  0  0  0  0  0
  1  2  1  0
  1  4  2  0
  1  6  1  0
  2  3  2  0
  3  5  1  0
  4  5  1  0
  4  7  1  0
  6 12  1  0
  7  8  2  3
  8  9  1  0
  8 18  1  0
  9 10  2  0
  9 11  1  0
 11 14  1  0
 11 16  1  0
 12 13  2  3
 13 19  1  0
 13 24  1  0
 14 15  2  0
 14 20  1  0
 16 17  2  0
 17 18  1  0
 17 21  1  0
 20 22  1  0
 22 23  2  0
M  END

$$$$

     RDKit          3D

 30 32  0  0  0  0  0  0  0  0999 V2000
    0.0000    0.0000    0.0000 C   0  0  0  0  0  0  0  0  0  0  0  0
    0.0000    0.0000    1.3548 C   0  0  0  0  0  0  0  0  0  0  0  0
    1.3354    0.0000    1.7264 O   0  0  0  0  0  0  0  0  0  0  0  0
    1.2757   -0.0627   -0.4516 C   0  0  0  0  0  0  0  0  0  0  0  0
    2.1506    0.0536    0.6483 C   0  0  0  0  0  0  0  0  0  0  0  0
   -1.1657    0.0000    2.2881 C   0  0  0  0  0  0  0  0  0  0  0  0
   -1.2245    1.1976    3.1492 N   0  0  0  0  0  0  0  0  0  0  0  0
   -2.2773    1.1833    4.1840 C   0  0  0  0  0  0  0  0  0  0  0  0
   -1.9006    2.0821    5.3607 C   0  0  0  0  0  0  0  0  0  0  0  0
   -1.0543    3.2745    4.8601 C   0  0  0  0  0  0  0  0  0  0  0  0
   -1.3063    2.4338    2.3620 C   0  0  0  0  0  0  0  0  0  0  0  0
   -1.7438    3.5756    3.2782 C   0  0  0  0  0  0  0  0  0  0  0  0
    0.4568    2.9576    5.0388 C   0  0  0  0  0  0  0  0  0  0  0  0
   -1.2579    4.4914    5.7909 C   0  0  0  0  0  0  0  0  0  0  0  0
   -0.3860    5.6640    5.5278 C   0  0  0  0  0  0  0  0  0  0  0  0
    0.9264    5.8332    5.7800 C   0  0  0  0  0  0  0  0  0  0  0  0
   -0.9894    7.1306    4.7122 S   0  0  0  0  0  0  0  0  0  0  0  0
    1.4472    7.0219    5.3648 N   0  0  0  0  0  0  0  0  0  0  0  0
    0.6096    7.8192    4.7943 C   0  0  0  0  0  0  0  0  0  0  0  0
    0.8752    9.0565    4.3556 N   0  0  0  0  0  0  0  0  0  0  0  0
    0.1578    9.6686    3.3289 C   0  0  0  0  0  0  0  0  0  0  0  0
   -0.3906    8.9711    2.2639 C   0  0  0  0  0  0  0  0  0  0  0  0
    0.0469   11.0737    3.3734 C   0  0  0  0  0  0  0  0  0  0  0  0
   -1.1428    9.6208    1.2864 C   0  0  0  0  0  0  0  0  0  0  0  0
   -0.7205   11.6358    2.3543 C   0  0  0  0  0  0  0  0  0  0  0  0
   -1.3722   10.9789    1.3372 C   0  0  0  0  0  0  0  0  0  0  0  0
   -0.9371   13.3054    2.3922 Cl  0  0  0  0  0  0  0  0  0  0  0  0
    0.7801   11.8419    4.4111 C   0  0  0  0  0  0  0  0  0  0  0  0
    1.6079   11.2604    5.1338 O   0  0  0  0  0  0  0  0  0  0  0  0
    0.5549   13.1385    4.6148 N   0  0  0  0  0  0  0  0  0  0  0  0
  1  2  2  0
  1  4  1  0
  2  3  1  0
  2  6  1  0
  3  5  1  0
  4  5  2  0
  6  7  1  0
  7  8  1  0
  7 11  1  0
  8  9  1  0
  9 10  1  0
 10 13  1  0
 10 14  1  0
 11 12  1  0
 14 15  1  0
 15 16  2  0
 15 17  1  0
 16 18  1  0
 17 19  1  0
 18 19  2  0
 19 20  1  0
 20 21  1  0
 21 22  2  0
 21 23  1  0
 22 24  1  0
 23 25  2  0
 23 28  1  0
 24 26  2  0
 25 26  1  0
 25 27  1  0
 28 29  2  0
 28 30  1  0
M  END

$$$$

     RDKit          3D

 26 28  0  0  0  0  0  0  0  0999 V2000
    0.0000    0.0000    0.0000 C   0  0  0  0  0  0  0  0  0  0  0  0
    0.0000    0.0000    1.4511 C   0  0  0  0  0  0  0  0  0  0  0  0
    1.2480    0.0000    1.8206 C   0  0  0  0  0  0  0  0  0  0  0  0
    1.3405    0.0659   -0.3465 C   0  0  0  0  0  0  0  0  0  0  0  0
    2.1302    0.0529    0.7542 O   0  0  0  0  0  0  0  0  0  0  0  0
    1.8351   -0.0578    3.1739 C   0  0  0  0  0  0  0  0  0  0  0  0
    2.0238    0.2658   -1.6015 C   0  0  0  0  0  0  0  0  0  0  0  0
    3.3561    0.7025   -1.6153 C   0  0  0  0  0  0  0  0  0  0  0  0
    1.4182    0.0515   -2.8298 C   0  0  0  0  0  0  0  0  0  0  0  0
    4.0295    0.9529   -2.7823 C   0  0  0  0  0  0  0  0  0  0  0  0
    2.0997    0.3047   -4.0100 C   0  0  0  0  0  0  0  0  0  0  0  0
    3.3905    0.7758   -4.0359 C   0  0  0  0  0  0  0  0  0  0  0  0
   -1.2198    0.0000   -0.7860 C   0  0  0  0  0  0  0  0  0  0  0  0
   -1.2686   -0.3708   -1.9643 O   0  0  0  0  0  0  0  0  0  0  0  0
    4.2306    1.1313   -5.0061 O   0  0  0  0  0  0  0  0  0  0  0  0
    1.1561   -0.1091   -5.5926 Br  0  0  0  0  0  0  0  0  0  0  0  0
    3.8168    1.2173   -6.3685 C   0  0  0  0  0  0  0  0  0  0  0  0
   -2.2824    0.4402   -0.1929 O   0  0  0  0  0  0  0  0  0  0  0  0
    2.9884    2.4868   -6.6206 C   0  0  0  0  0  0  0  0  0  0  0  0
   -3.5686    0.4396   -0.8467 C   0  0  0  0  0  0  0  0  0  0  0  0
    3.8061    3.7564   -6.3889 C   0  0  0  0  0  0  0  0  0  0  0  0
   -4.6822    0.8422    0.1049 C   0  0  0  0  0  0  0  0  0  0  0  0
    5.1600    1.3657   -7.0624 C   0  0  0  0  0  0  0  0  0  0  0  0
    5.2086    3.4929   -6.7326 N   0  0  0  0  0  0  0  0  0  0  0  0
    5.4167    2.5218   -7.8249 C   0  0  0  0  0  0  0  0  0  0  0  0
    5.9348    4.7216   -6.8769 C   0  0  0  0  0  0  0  0  0  0  0  0
  1  2  1  0
  1  4  2  0
  1 13  1  0
  2  3  2  0
  3  5  1  0
  3  6  1  0
  4  5  1  0
  4  7  1  0
  7  8  2  0
  7  9  1  0
  8 10  1  0
  9 11  2  0
 10 12  2  0
 11 12  1  0
 11 16  1  0
 12 15  1  0
 13 14  2  0
 13 18  1  0
 15 17  1  0
 17 19  1  0
 17 23  1  0
 18 20  1  0
 19 21  1  0
 20 22  1  0
 21 24  1  0
 23 25  1  0
 24 25  1  0
 24 26  1  0
M  END

$$$$

     RDKit          3D

 23 25  0  0  0  0  0  0  0  0999 V2000
    0.0000    0.0000    0.0000 C   0  0  0  0  0  0  0  0  0  0  0  0
    0.0000    0.0000    1.3625 O   0  0  0  0  0  0  0  0  0  0  0  0
    1.2940    0.0000    1.6772 C   0  0  0  0  0  0  0  0  0  0  0  0
    1.2586    0.0618   -0.5776 C   0  0  0  0  0  0  0  0  0  0  0  0
    2.0759    0.0485    0.5617 C   0  0  0  0  0  0  0  0  0  0  0  0
   -1.1854    0.0000   -0.7638 C   0  0  0  0  0  0  0  0  0  0  0  0
   -2.4806   -0.0636   -0.4290 C   0  0  0  0  0  0  0  0  0  0  0  0
   -3.1295   -0.0137    0.9245 C   0  0  0  0  0  0  0  0  0  0  0  0
   -3.5716   -0.1044   -1.4979 C   0  0  0  0  0  0  0  0  0  0  0  0
   -4.8422   -0.5507   -0.7763 C   0  0  0  0  0  0  0  0  0  0  0  0
    1.5577   -0.0525    2.9737 O   0  0  0  0  0  0  0  0  0  0  0  0
   -4.4751   -0.4968    0.6761 N   0  0  0  0  0  0  0  0  0  0  0  0
   -5.3995   -0.4097    1.7698 C   0  0  0  0  0  0  0  0  0  0  0  0
   -3.1839    1.3883    1.4841 C   0  0  0  0  0  0  0  0  0  0  0  0
   -2.7555    1.6352    2.7371 C   0  0  0  0  0  0  0  0  0  0  0  0
   -2.8028    2.8281    3.3610 O   0  0  0  0  0  0  0  0  0  0  0  0
   -3.7363    2.4749    0.7122 C   0  0  0  0  0  0  0  0  0  0  0  0
   -3.7201    3.7171    1.2330 C   0  0  0  0  0  0  0  0  0  0  0  0
   -3.4614    3.8831    2.6795 C   0  0  0  0  0  0  0  0  0  0  0  0
   -3.5781    4.8998    3.3218 O   0  0  0  0  0  0  0  0  0  0  0  0
   -2.2074    0.7283    3.5562 O   0  0  0  0  0  0  0  0  0  0  0  0
   -5.7907    1.0350    2.2209 C   0  0  0  0  0  0  0  0  0  0  0  0
   -6.0732    1.0605    3.7133 C   0  0  0  0  0  0  0  0  0  0  0  0
  1  2  1  0
  1  4  2  0
  1  6  1  0
  2  3  1  0
  3  5  2  0
  3 11  1  0
  4  5  1  0
  6  7  2  3
  7  8  1  0
  7  9  1  0
  8 12  1  0
  8 14  1  0
  9 10  1  0
 10 12  1  0
 12 13  1  0
 13 22  1  0
 14 15  2  0
 14 17  1  0
 15 16  1  0
 15 21  1  0
 16 19  1  0
 17 18  2  0
 18 19  1  0
 19 20  2  0
 22 23  1  0
M  END

$$$$

     RDKit          3D

 18 18  0  0  0  0  0  0  0  0999 V2000
    0.0000    0.0000    0.0000 C   0  0  0  0  0  0  0  0  0  0  0  0
    0.0000    0.0000    1.3941 C   0  0  0  0  0  0  0  0  0  0  0  0
    1.2274    0.0000    1.8703 O   0  0  0  0  0  0  0  0  0  0  0  0
    1.3405   -0.0659   -0.3465 C   0  0  0  0  0  0  0  0  0  0  0  0
    2.0703   -0.0496    0.7948 C   0  0  0  0  0  0  0  0  0  0  0  0
    1.9275   -0.1529   -1.7076 C   0  0  0  0  0  0  0  0  0  0  0  0
   -1.1524    0.0000    2.3168 C   0  0  0  0  0  0  0  0  0  0  0  0
   -2.2704   -0.1658    1.7988 O   0  0  0  0  0  0  0  0  0  0  0  0
   -1.0078    0.1446    3.6404 N   0  0  0  0  0  0  0  0  0  0  0  0
    0.1858    0.5142    4.3618 C   0  0  0  0  0  0  0  0  0  0  0  0
   -0.2340    1.5826    5.3966 C   0  0  0  0  0  0  0  0  0  0  0  0
   -1.2646    2.4435    4.8466 N   0  0  0  0  0  0  0  0  0  0  0  0
   -2.1875    0.0849    4.5260 C   0  0  0  0  0  0  0  0  0  0  0  0
   -2.5167    1.7046    4.6448 C   0  0  0  0  0  0  0  0  0  0  0  0
   -1.5253    3.6786    5.5624 C   0  0  0  0  0  0  0  0  0  0  0  0
   -2.4573    4.6457    4.8160 C   0  0  0  0  0  0  0  0  0  0  0  0
   -2.0035    4.7616    3.3617 C   0  0  0  0  0  0  0  0  0  0  0  0
   -2.4498    6.0288    5.4652 C   0  0  0  0  0  0  0  0  0  0  0  0
  1  2  2  0
  1  4  1  0
  2  3  1  0
  2  7  1  0
  3  5  1  0
  4  5  2  0
  4  6  1  0
  7  8  2  0
  7  9  1  0
  9 10  1  0
  9 13  1  0
 10 11  1  0
 11 12  1  0
 12 14  1  0
 12 15  1  0
 15 16  1  0
 16 17  1  0
 16 18  1  0
M  END

$$$$

     RDKit          3D

 18 19  0  0  0  0  0  0  0  0999 V2000
    0.0000    0.0000    0.0000 C   0  0  0  0  0  0  0  0  0  0  0  0
    0.0000    0.0000    1.3317 O   0  0  0  0  0  0  0  0  0  0  0  0
    1.3230    0.0000    1.7712 C   0  0  0  0  0  0  0  0  0  0  0  0
    1.2008    0.1183   -0.4881 C   0  0  0  0  0  0  0  0  0  0  0  0
    2.1667    0.0504    0.5927 C   0  0  0  0  0  0  0  0  0  0  0  0
    3.5424    0.0512    0.7623 C   0  0  0  0  0  0  0  0  0  0  0  0
    4.1154   -0.0885    2.0256 C   0  0  0  0  0  0  0  0  0  0  0  0
    3.2635   -0.2930    3.1409 C   0  0  0  0  0  0  0  0  0  0  0  0
    1.8923   -0.2966    3.0019 C   0  0  0  0  0  0  0  0  0  0  0  0
    3.9430   -0.5778    4.4595 C   0  0  0  0  0  0  0  0  0  0  0  0
    5.4557   -0.0337    2.1480 O   0  0  0  0  0  0  0  0  0  0  0  0
    1.4298    0.3063   -1.9171 C   0  0  0  0  0  0  0  0  0  0  0  0
    2.4989    0.4740   -2.4698 O   0  0  0  0  0  0  0  0  0  0  0  0
    0.2505    0.3300   -2.5676 O   0  0  0  0  0  0  0  0  0  0  0  0
    4.5053   -1.9984    4.4666 C   0  0  0  0  0  0  0  0  0  0  0  0
    0.3129    0.6619   -3.9619 C   0  0  0  0  0  0  0  0  0  0  0  0
    0.3846    2.1741   -4.1684 C   0  0  0  0  0  0  0  0  0  0  0  0
   -0.8977    0.0032   -4.6213 C   0  0  0  0  0  0  0  0  0  0  0  0
  1  2  1  0
  1  4  2  0
  2  3  1  0
  3  5  2  0
  3  9  1  0
  4  5  1  0
  4 12  1  0
  5  6  1  0
  6  7  2  0
  7  8  1  0
  7 11  1  0
  8  9  2  0
  8 10  1  0
 10 15  1  0
 12 13  2  0
 12 14  1  0
 14 16  1  0
 16 17  1  0
 16 18  1  0
M  END

$$$$

     RDKit          3D

 16 17  0  0  0  0  0  0  0  0999 V2000
    0.0000    0.0000    0.0000 C   0  0  0  0  0  0  0  0  0  0  0  0
    0.0000    0.0000    1.3782 C   0  0  0  0  0  0  0  0  0  0  0  0
    1.3291    0.0000    1.7717 C   0  0  0  0  0  0  0  0  0  0  0  0
    1.3027    0.0640   -0.3368 C   0  0  0  0  0  0  0  0  0  0  0  0
    2.1457    0.0544    0.7139 O   0  0  0  0  0  0  0  0  0  0  0  0
    1.7620    0.0570    3.1470 C   0  0  0  0  0  0  0  0  0  0  0  0
    2.8902   -0.2210    3.6465 N   0  0  0  0  0  0  0  0  0  0  0  0
    3.9716   -0.7765    3.0313 C   0  0  0  0  0  0  0  0  0  0  0  0
    3.9163   -2.0572    2.4437 C   0  0  0  0  0  0  0  0  0  0  0  0
    5.2217   -0.1755    3.1713 C   0  0  0  0  0  0  0  0  0  0  0  0
    5.0842   -2.6514    2.0164 C   0  0  0  0  0  0  0  0  0  0  0  0
    6.3769   -0.8080    2.7391 C   0  0  0  0  0  0  0  0  0  0  0  0
    6.2943   -1.9814    2.1054 C   0  0  0  0  0  0  0  0  0  0  0  0
    7.6303   -0.0444    2.7148 C   0  0  0  0  0  0  0  0  0  0  0  0
    7.7248    1.1124    3.0502 O   0  0  0  0  0  0  0  0  0  0  0  0
    8.6855   -0.7736    2.3292 O   0  0  0  0  0  0  0  0  0  0  0  0
  1  2  1  0
  1  4  2  0
  2  3  2  0
  3  5  1  0
  3  6  1  0
  4  5  1  0
  6  7  2  3
  7  8  1  0
  8  9  2  0
  8 10  1  0
  9 11  1  0
 10 12  2  0
 11 13  2  0
 12 13  1  0
 12 14  1  0
 14 15  2  0
 14 16  1  0
M  END

$$$$

     RDKit          3D

 31 34  0  0  0  0  0  0  0  0999 V2000
    0.0000    0.0000    0.0000 O   0  0  0  0  0  0  0  0  0  0  0  0
    0.0000    0.0000    1.3470 C   0  0  0  0  0  0  0  0  0  0  0  0
    1.3078    0.0000    1.8298 C   0  0  0  0  0  0  0  0  0  0  0  0
    1.2970    0.1277   -0.3974 C   0  0  0  0  0  0  0  0  0  0  0  0
    2.1276    0.0586    0.6412 C   0  0  0  0  0  0  0  0  0  0  0  0
   -1.2480   -0.0613    2.0685 C   0  0  0  0  0  0  0  0  0  0  0  0
   -1.3332    0.5596    3.3227 C   0  0  0  0  0  0  0  0  0  0  0  0
   -2.3598   -0.8042    1.5957 C   0  0  0  0  0  0  0  0  0  0  0  0
   -2.4482    0.3547    4.1478 C   0  0  0  0  0  0  0  0  0  0  0  0
   -3.4635   -0.9955    2.4257 C   0  0  0  0  0  0  0  0  0  0  0  0
   -3.5042   -0.4289    3.6848 C   0  0  0  0  0  0  0  0  0  0  0  0
   -2.2724   -1.3246    0.3479 O   0  0  0  0  0  0  0  0  0  0  0  0
   -3.1842   -2.2728   -0.1601 C   0  0  0  0  0  0  0  0  0  0  0  0
    1.7432    0.0573    3.2129 C   0  0  0  0  0  0  0  0  0  0  0  0
    0.9683   -0.0540    4.1423 O   0  0  0  0  0  0  0  0  0  0  0  0
    3.0790    0.2916    3.3445 O   0  0  0  0  0  0  0  0  0  0  0  0
   -2.4226    0.9306    5.5346 C   0  0  0  0  0  0  0  0  0  0  0  0
    3.6276    0.3152    4.6259 C   0  0  0  0  0  0  0  0  0  0  0  0
    4.1335    1.5077    5.0966 C   0  0  0  0  0  0  0  0  0  0  0  0
    3.5721   -0.8434    5.4279 C   0  0  0  0  0  0  0  0  0  0  0  0
    4.6409    1.5908    6.3754 C   0  0  0  0  0  0  0  0  0  0  0  0
    4.0982   -0.7553    6.7420 C   0  0  0  0  0  0  0  0  0  0  0  0
    3.0524   -2.0937    5.0341 C   0  0  0  0  0  0  0  0  0  0  0  0
    4.5881    0.5027    7.1938 C   0  0  0  0  0  0  0  0  0  0  0  0
    4.0194   -1.8729    7.5984 C   0  0  0  0  0  0  0  0  0  0  0  0
    2.9744   -3.1862    5.8708 C   0  0  0  0  0  0  0  0  0  0  0  0
    3.4948   -3.0485    7.1519 C   0  0  0  0  0  0  0  0  0  0  0  0
   -4.7576   -0.6369    4.5175 C   0  0  0  0  0  0  0  0  0  0  0  0
   -4.6142   -1.6466    2.0652 O   0  0  0  0  0  0  0  0  0  0  0  0
    2.6131   -2.3594    3.6410 C   0  0  0  0  0  0  0  0  0  0  0  0
    1.9534   -3.3118    3.3236 O   0  0  0  0  0  0  0  0  0  0  0  0
  1  2  1  0
  1  4  1  0
  2  3  2  0
  2  6  1  0
  3  5  1  0
  3 14  1  0
  4  5  2  0
  6  7  2  0
  6  8  1  0
  7  9  1  0
  8 10  2  0
  8 12  1  0
  9 11  2  0
  9 17  1  0
 10 11  1  0
 10 29  1  0
 11 28  1  0
 12 13  1  0
 14 15  2  0
 14 16  1  0
 16 18  1  0
 18 19  2  0
 18 20  1  0
 19 21  1  0
 20 22  2  0
 20 23  1  0
 21 24  2  0
 22 24  1  0
 22 25  1  0
 23 26  2  0
 23 30  1  0
 25 27  2  0
 26 27  1  0
 30 31  2  0
M  END

$$$$

     RDKit          3D

 28 29  0  0  0  0  0  0  0  0999 V2000
    0.0000    0.0000    0.0000 C   0  0  0  0  0  0  0  0  0  0  0  0
    0.0000    0.0000    1.4346 O   0  0  0  0  0  0  0  0  0  0  0  0
    1.3291    0.0000    1.8281 C   0  0  0  0  0  0  0  0  0  0  0  0
    1.2612   -0.0620   -0.4464 C   0  0  0  0  0  0  0  0  0  0  0  0
    2.1437   -0.0520    0.6534 C   0  0  0  0  0  0  0  0  0  0  0  0
    1.7263    0.0523    3.0901 O   0  0  0  0  0  0  0  0  0  0  0  0
    0.6060    0.0506    3.9598 C   0  0  0  0  0  0  0  0  0  0  0  0
   -1.2689    0.3178   -0.7552 C   0  0  0  0  0  0  0  0  0  0  0  0
   -1.4095    1.7455   -0.7552 O   0  0  0  0  0  0  0  0  0  0  0  0
   -2.4031   -0.3620   -0.2203 N   0  0  0  0  0  0  0  0  0  0  0  0
   -3.7356   -0.0874   -0.6754 C   0  0  0  0  0  0  0  0  0  0  0  0
   -4.7651   -0.6723    0.3041 C   0  0  0  0  0  0  0  0  0  0  0  0
   -4.5670   -0.0697    1.6749 C   0  0  0  0  0  0  0  0  0  0  0  0
   -5.2058    1.1129    1.9800 C   0  0  0  0  0  0  0  0  0  0  0  0
   -3.6972   -0.6315    2.6203 C   0  0  0  0  0  0  0  0  0  0  0  0
   -4.9546    1.7711    3.1737 C   0  0  0  0  0  0  0  0  0  0  0  0
   -3.5075   -0.0042    3.8689 C   0  0  0  0  0  0  0  0  0  0  0  0
   -4.0729    1.2830    4.0907 C   0  0  0  0  0  0  0  0  0  0  0  0
   -3.9932   -0.6400   -2.0955 C   0  0  0  0  0  0  0  0  0  0  0  0
   -3.8028   -2.1104   -2.1748 N   0  0  0  0  0  0  0  0  0  0  0  0
   -3.7089    1.8554    5.2545 O   0  0  0  0  0  0  0  0  0  0  0  0
   -3.0519   -1.8107    2.2817 O   0  0  0  0  0  0  0  0  0  0  0  0
   -2.7420   -0.4742    4.8727 O   0  0  0  0  0  0  0  0  0  0  0  0
   -2.2853   -1.7981    4.9406 C   0  0  0  0  0  0  0  0  0  0  0  0
   -4.3264    3.0597    5.6211 C   0  0  0  0  0  0  0  0  0  0  0  0
   -3.0201   -2.5204   -3.3469 C   0  0  0  0  0  0  0  0  0  0  0  0
   -1.7196   -2.0176    2.6949 C   0  0  0  0  0  0  0  0  0  0  0  0
   -5.0544   -2.8674   -2.0526 C   0  0  0  0  0  0  0  0  0  0  0  0
  1  2  1  0
  1  4  2  0
  1  8  1  0
  2  3  1  0
  3  5  2  0
  3  6  1  0
  4  5  1  0
  6  7  1  0
  8  9  1  0
  8 10  1  0
 10 11  1  0
 11 12  1  0
 11 19  1  0
 12 13  1  0
 13 14  2  0
 13 15  1  0
 14 16  1  0
 15 17  2  0
 15 22  1  0
 16 18  2  0
 17 18  1  0
 17 23  1  0
 18 21  1  0
 19 20  1  0
 20 26  1  0
 20 28  1  0
 21 25  1  0
 22 27  1  0
 23 24  1  0
M  END

$$$$

     RDKit          3D

 26 27  0  0  0  0  0  0  0  0999 V2000
    0.0000    0.0000    0.0000 O   0  0  0  0  0  0  0  0  0  0  0  0
    0.0000    0.0000    1.3470 C   0  0  0  0  0  0  0  0  0  0  0  0
    1.2487    0.0000    1.8315 C   0  0  0  0  0  0  0  0  0  0  0  0
    1.2469   -0.0613   -0.4414 C   0  0  0  0  0  0  0  0  0  0  0  0
    2.0922    0.0511    0.6214 C   0  0  0  0  0  0  0  0  0  0  0  0
    3.5465   -0.1227    0.7175 C   0  0  0  0  0  0  0  0  0  0  0  0
    4.1542   -0.6203    1.6264 O   0  0  0  0  0  0  0  0  0  0  0  0
    4.1914    0.2227   -0.4044 O   0  0  0  0  0  0  0  0  0  0  0  0
    5.5750   -0.0496   -0.4093 C   0  0  0  0  0  0  0  0  0  0  0  0
    5.7917   -1.5793   -0.3713 C   0  0  0  0  0  0  0  0  0  0  0  0
    4.9295   -2.3694   -0.5777 O   0  0  0  0  0  0  0  0  0  0  0  0
    7.0632   -1.8758   -0.1092 O   0  0  0  0  0  0  0  0  0  0  0  0
    6.2010    0.6355   -1.6451 C   0  0  0  0  0  0  0  0  0  0  0  0
    7.3655    0.9564   -1.6703 O   0  0  0  0  0  0  0  0  0  0  0  0
    5.3725    0.7794   -2.6876 N   0  0  0  0  0  0  0  0  0  0  0  0
    7.4017   -3.2531   -0.1018 C   0  0  0  0  0  0  0  0  0  0  0  0
    5.7796    1.2394   -3.9932 C   0  0  0  0  0  0  0  0  0  0  0  0
    5.4132    0.2338   -5.0468 C   0  0  0  0  0  0  0  0  0  0  0  0
    5.5938   -1.1869   -4.9625 C   0  0  0  0  0  0  0  0  0  0  0  0
    4.7725    0.4653   -6.2358 C   0  0  0  0  0  0  0  0  0  0  0  0
    5.1218   -1.7251   -6.0228 N   0  0  0  0  0  0  0  0  0  0  0  0
    4.6063   -0.7363   -6.8391 O   0  0  0  0  0  0  0  0  0  0  0  0
    4.2221    1.6690   -6.9272 C   0  0  0  0  0  0  0  0  0  0  0  0
    5.0631    2.7212   -6.9168 F   0  0  0  0  0  0  0  0  0  0  0  0
    3.9168    1.3830   -8.1834 F   0  0  0  0  0  0  0  0  0  0  0  0
    3.0964    2.1305   -6.2965 F   0  0  0  0  0  0  0  0  0  0  0  0
  1  2  1  0
  1  4  1  0
  2  3  2  0
  3  5  1  0
  4  5  2  0
  5  6  1  0
  6  7  2  0
  6  8  1  0
  8  9  1  0
  9 10  1  0
  9 13  1  0
 10 11  2  0
 10 12  1  0
 12 16  1  0
 13 14  2  0
 13 15  1  0
 15 17  1  0
 17 18  1  0
 18 19  1  0
 18 20  2  0
 19 21  2  0
 20 22  1  0
 20 23  1  0
 21 22  1  0
 23 24  1  0
 23 25  1  0
 23 26  1  0
M  END

$$$$

     RDKit          3D

 31 33  0  0  0  0  0  0  0  0999 V2000
    0.0000    0.0000    0.0000 O   0  0  0  0  0  0  0  0  0  0  0  0
    0.0000    0.0000    1.4102 C   0  0  0  0  0  0  0  0  0  0  0  0
    1.2548    0.0000    1.9209 C   0  0  0  0  0  0  0  0  0  0  0  0
    1.2732    0.0625   -0.3291 C   0  0  0  0  0  0  0  0  0  0  0  0
    2.1357    0.0528    0.7458 C   0  0  0  0  0  0  0  0  0  0  0  0
    1.6467    0.0220   -1.7655 C   0  0  0  0  0  0  0  0  0  0  0  0
    3.5868    0.0516    0.7434 C   0  0  0  0  0  0  0  0  0  0  0  0
    4.2138    0.2267   -0.2744 O   0  0  0  0  0  0  0  0  0  0  0  0
    1.6019    0.0690    3.6275 S   0  0  0  0  0  0  0  0  0  0  0  0
    4.1686   -0.1148    1.9556 O   0  0  0  0  0  0  0  0  0  0  0  0
    3.3451   -0.4171    3.7562 C   0  0  0  0  0  0  0  0  0  0  0  0
    5.5787    0.0157    2.1266 C   0  0  0  0  0  0  0  0  0  0  0  0
    5.9095    1.3282    2.7775 C   0  0  0  0  0  0  0  0  0  0  0  0
    6.4505    1.3872    4.0523 C   0  0  0  0  0  0  0  0  0  0  0  0
    5.6470    2.5165    2.0973 C   0  0  0  0  0  0  0  0  0  0  0  0
    6.6904    2.6091    4.6244 C   0  0  0  0  0  0  0  0  0  0  0  0
    5.8905    3.7591    2.6805 C   0  0  0  0  0  0  0  0  0  0  0  0
    6.3414    3.7841    3.9602 C   0  0  0  0  0  0  0  0  0  0  0  0
    5.6044    4.9451    2.0738 O   0  0  0  0  0  0  0  0  0  0  0  0
    4.9778    4.8687    0.8128 C   0  0  0  0  0  0  0  0  0  0  0  0
    6.6063    4.8863    4.7021 O   0  0  0  0  0  0  0  0  0  0  0  0
    6.4815    6.1778    4.1707 C   0  0  0  0  0  0  0  0  0  0  0  0
    7.4467    6.4705    3.0463 C   0  0  0  0  0  0  0  0  0  0  0  0
    7.2308    7.5949    2.2092 C   0  0  0  0  0  0  0  0  0  0  0  0
    8.4788    5.6567    2.7512 C   0  0  0  0  0  0  0  0  0  0  0  0
    8.1252    7.7971    1.1484 C   0  0  0  0  0  0  0  0  0  0  0  0
    6.1472    8.4700    2.3701 C   0  0  0  0  0  0  0  0  0  0  0  0
    9.3953    5.8658    1.6567 C   0  0  0  0  0  0  0  0  0  0  0  0
    9.1731    6.8973    0.8642 C   0  0  0  0  0  0  0  0  0  0  0  0
    7.9810    8.9289    0.3198 C   0  0  0  0  0  0  0  0  0  0  0  0
    6.0751    9.5513    1.5314 C   0  0  0  0  0  0  0  0  0  0  0  0
  1  2  1  0
  1  4  1  0
  2  3  2  0
  3  5  1  0
  3  9  1  0
  4  5  2  0
  4  6  1  0
  5  7  1  0
  7  8  2  0
  7 10  1  0
  9 11  1  0
 10 12  1  0
 12 13  1  0
 13 14  2  0
 13 15  1  0
 14 16  1  0
 15 17  2  0
 16 18  2  0
 17 18  1  0
 17 19  1  0
 18 21  1  0
 19 20  1  0
 21 22  1  0
 22 23  1  0
 23 24  2  0
 23 25  1  0
 24 26  1  0
 24 27  1  0
 25 28  2  0
 26 29  2  0
 26 30  1  0
 27 31  2  0
 28 29  1  0
M  END

$$$$

     RDKit          3D

 32 35  0  0  0  0  0  0  0  0999 V2000
    0.0000    0.0000    0.0000 C   0  0  0  0  0  0  0  0  0  0  0  0
    0.0000    0.0000    1.4021 C   0  0  0  0  0  0  0  0  0  0  0  0
    1.3940    0.0000    1.7410 C   0  0  0  0  0  0  0  0  0  0  0  0
    1.3347    0.1315   -0.4090 C   0  0  0  0  0  0  0  0  0  0  0  0
    2.1845    0.0607    0.6538 O   0  0  0  0  0  0  0  0  0  0  0  0
   -1.0016    0.0525    2.4049 C   0  0  0  0  0  0  0  0  0  0  0  0
   -0.5797   -0.0257    3.7567 C   0  0  0  0  0  0  0  0  0  0  0  0
   -2.3652    0.2593    2.1111 C   0  0  0  0  0  0  0  0  0  0  0  0
    0.7887   -0.0918    4.1239 C   0  0  0  0  0  0  0  0  0  0  0  0
   -1.5427   -0.0284    4.7867 C   0  0  0  0  0  0  0  0  0  0  0  0
   -3.3202    0.2536    3.1268 C   0  0  0  0  0  0  0  0  0  0  0  0
    1.7472   -0.0820    3.1775 C   0  0  0  0  0  0  0  0  0  0  0  0
   -2.8669    0.1012    4.4928 C   0  0  0  0  0  0  0  0  0  0  0  0
   -2.8115    0.4821    0.8598 O   0  0  0  0  0  0  0  0  0  0  0  0
   -4.6737    0.3797    3.0347 O   0  0  0  0  0  0  0  0  0  0  0  0
    1.7894    0.3426   -1.7444 C   0  0  0  0  0  0  0  0  0  0  0  0
    0.9732    0.2589   -2.6690 O   0  0  0  0  0  0  0  0  0  0  0  0
   -5.2990    0.9345    1.8789 C   0  0  0  0  0  0  0  0  0  0  0  0
   -6.7804    0.7023    2.1718 C   0  0  0  0  0  0  0  0  0  0  0  0
    3.2428    0.7161   -1.9807 C   0  0  0  0  0  0  0  0  0  0  0  0
   -5.0248    2.4012    1.7084 C   0  0  0  0  0  0  0  0  0  0  0  0
   -5.9848    3.3248    1.5691 C   0  0  0  0  0  0  0  0  0  0  0  0
    3.4529    1.8479   -3.0251 C   0  0  0  0  0  0  0  0  0  0  0  0
    2.9910    3.1485   -2.6648 N   0  0  0  0  0  0  0  0  0  0  0  0
    3.4873    3.8146   -1.4851 C   0  0  0  0  0  0  0  0  0  0  0  0
    2.6286    3.5833   -0.2212 C   0  0  0  0  0  0  0  0  0  0  0  0
   -5.8539    4.7521    1.3424 C   0  0  0  0  0  0  0  0  0  0  0  0
   -4.6227    5.3177    1.0501 C   0  0  0  0  0  0  0  0  0  0  0  0
   -6.9528    5.6290    1.4525 C   0  0  0  0  0  0  0  0  0  0  0  0
   -4.5545    6.6937    0.7896 C   0  0  0  0  0  0  0  0  0  0  0  0
   -6.8874    6.9820    1.1987 C   0  0  0  0  0  0  0  0  0  0  0  0
   -5.6793    7.5576    0.8059 C   0  0  0  0  0  0  0  0  0  0  0  0
  1  2  1  0
  1  4  2  0
  2  3  2  0
  2  6  1  0
  3  5  1  0
  3 12  1  0
  4  5  1  0
  4 16  1  0
  6  7  2  0
  6  8  1  0
  7  9  1  0
  7 10  1  0
  8 11  2  0
  8 14  1  0
  9 12  2  0
 10 13  2  0
 11 13  1  0
 11 15  1  0
 15 18  1  0
 16 17  2  0
 16 20  1  0
 18 19  1  0
 18 21  1  0
 20 23  1  0
 21 22  2  3
 22 27  1  0
 23 24  1  0
 24 25  1  0
 25 26  1  0
 27 28  2  0
 27 29  1  0
 28 30  1  0
 29 31  2  0
 30 32  2  0
 31 32  1  0
M  END

$$$$

     RDKit          3D

 31 33  0  0  0  0  0  0  0  0999 V2000
    0.0000    0.0000    0.0000 C   0  0  0  0  0  0  0  0  0  0  0  0
    0.0000    0.0000    1.4847 C   0  0  0  0  0  0  0  0  0  0  0  0
    1.4400    0.0000    1.8099 C   0  0  0  0  0  0  0  0  0  0  0  0
    1.3482   -0.0662   -0.3485 C   0  0  0  0  0  0  0  0  0  0  0  0
    2.2169   -0.1579    0.6264 O   0  0  0  0  0  0  0  0  0  0  0  0
   -0.8943   -0.0439    2.2856 O   0  0  0  0  0  0  0  0  0  0  0  0
   -1.0558   -0.0519   -0.9455 C   0  0  0  0  0  0  0  0  0  0  0  0
   -0.7959   -0.0904   -2.2127 N   0  0  0  0  0  0  0  0  0  0  0  0
    1.9893    0.1472    2.9478 N   0  0  0  0  0  0  0  0  0  0  0  0
    2.0152   -0.0408   -1.6843 C   0  0  0  0  0  0  0  0  0  0  0  0
    2.0995    1.3983   -2.1354 C   0  0  0  0  0  0  0  0  0  0  0  0
    1.3058    1.8397   -3.1616 C   0  0  0  0  0  0  0  0  0  0  0  0
    2.9898    2.2716   -1.4771 C   0  0  0  0  0  0  0  0  0  0  0  0
    1.3842    3.2109   -3.5156 C   0  0  0  0  0  0  0  0  0  0  0  0
    3.0647    3.5965   -1.8191 C   0  0  0  0  0  0  0  0  0  0  0  0
    0.6242    3.7007   -4.5977 C   0  0  0  0  0  0  0  0  0  0  0  0
    2.2022    4.1275   -2.8070 C   0  0  0  0  0  0  0  0  0  0  0  0
    0.6302    5.0112   -4.9412 C   0  0  0  0  0  0  0  0  0  0  0  0
    2.2085    5.4993   -3.1672 C   0  0  0  0  0  0  0  0  0  0  0  0
    1.4096    5.9490   -4.2170 C   0  0  0  0  0  0  0  0  0  0  0  0
    0.4315    1.0482   -3.9050 O   0  0  0  0  0  0  0  0  0  0  0  0
    2.9728    6.3507   -2.4272 O   0  0  0  0  0  0  0  0  0  0  0  0
    0.8101    0.6121   -5.1478 C   0  0  0  0  0  0  0  0  0  0  0  0
    1.9156    0.7917   -5.6007 O   0  0  0  0  0  0  0  0  0  0  0  0
    3.8332    4.5334   -1.2309 O   0  0  0  0  0  0  0  0  0  0  0  0
    3.0201    7.7344   -2.6490 C   0  0  0  0  0  0  0  0  0  0  0  0
    3.4396    0.1506    2.8987 C   0  0  0  0  0  0  0  0  0  0  0  0
    4.7808    4.1869   -0.2226 C   0  0  0  0  0  0  0  0  0  0  0  0
   -0.1742   -0.0141   -5.8058 N   0  0  0  0  0  0  0  0  0  0  0  0
    6.0137    3.5499   -0.8190 C   0  0  0  0  0  0  0  0  0  0  0  0
    7.0122    4.5733   -1.4056 C   0  0  0  0  0  0  0  0  0  0  0  0
  1  2  1  0
  1  4  1  0
  1  7  1  0
  2  3  1  0
  2  6  2  0
  3  5  1  0
  3  9  2  3
  4  5  1  0
  4 10  1  0
  7  8  2  0
  9 27  1  0
 10 11  1  0
 11 12  2  0
 11 13  1  0
 12 14  1  0
 12 21  1  0
 13 15  2  0
 14 16  2  0
 14 17  1  0
 15 17  1  0
 15 25  1  0
 16 18  1  0
 17 19  2  0
 18 20  2  0
 19 20  1  0
 19 22  1  0
 21 23  1  0
 22 26  1  0
 23 24  2  0
 23 29  1  0
 25 28  1  0
 28 30  1  0
 30 31  1  0
M  END

$$$$

     RDKit          3D

 30 32  0  0  0  0  0  0  0  0999 V2000
    0.0000    0.0000    0.0000 O   0  0  0  0  0  0  0  0  0  0  0  0
    0.0000    0.0000    1.4511 C   0  0  0  0  0  0  0  0  0  0  0  0
    1.2709    0.0000    1.9203 C   0  0  0  0  0  0  0  0  0  0  0  0
    1.3262   -0.1306   -0.2839 C   0  0  0  0  0  0  0  0  0  0  0  0
    2.2108   -0.0570    0.8223 C   0  0  0  0  0  0  0  0  0  0  0  0
    1.7435   -0.3244   -1.5094 N   0  0  0  0  0  0  0  0  0  0  0  0
    3.5927   -0.2220    0.7415 C   0  0  0  0  0  0  0  0  0  0  0  0
    3.0791   -0.4818   -1.5872 C   0  0  0  0  0  0  0  0  0  0  0  0
    3.9671   -0.4127   -0.5878 C   0  0  0  0  0  0  0  0  0  0  0  0
    3.5023   -0.6432   -2.9834 C   0  0  0  0  0  0  0  0  0  0  0  0
    2.6806   -1.1530   -3.9876 C   0  0  0  0  0  0  0  0  0  0  0  0
    4.8069   -0.3251   -3.3581 C   0  0  0  0  0  0  0  0  0  0  0  0
    3.1087   -1.2407   -5.3031 C   0  0  0  0  0  0  0  0  0  0  0  0
    5.0713   -0.4694   -4.7193 C   0  0  0  0  0  0  0  0  0  0  0  0
    4.3278   -0.8386   -5.6574 N   0  0  0  0  0  0  0  0  0  0  0  0
    4.6146   -0.3320    1.8130 C   0  0  0  0  0  0  0  0  0  0  0  0
    6.4001   -0.2250   -5.2256 C   0  0  0  0  0  0  0  0  0  0  0  0
    7.4052    0.5458   -4.7672 C   0  0  0  0  0  0  0  0  0  0  0  0
    8.7648    0.5087   -5.3836 C   0  0  0  0  0  0  0  0  0  0  0  0
    2.2832   -1.8308   -6.4103 C   0  0  0  0  0  0  0  0  0  0  0  0
    7.2128    1.4439   -3.6115 C   0  0  0  0  0  0  0  0  0  0  0  0
    6.2802    2.2034   -3.4388 O   0  0  0  0  0  0  0  0  0  0  0  0
    0.8049   -1.3813   -6.3785 C   0  0  0  0  0  0  0  0  0  0  0  0
    8.3015    1.3692   -2.5671 C   0  0  0  0  0  0  0  0  0  0  0  0
   -1.2574   -0.1865    2.1850 C   0  0  0  0  0  0  0  0  0  0  0  0
   -1.2784   -0.3687    3.3722 O   0  0  0  0  0  0  0  0  0  0  0  0
   -2.3755   -0.1316    1.4637 O   0  0  0  0  0  0  0  0  0  0  0  0
    9.7379   -0.2817   -4.4950 C   0  0  0  0  0  0  0  0  0  0  0  0
    9.7502    1.3093   -3.1020 C   0  0  0  0  0  0  0  0  0  0  0  0
   10.4475    2.1918   -2.2380 O   0  0  0  0  0  0  0  0  0  0  0  0
  1  2  1  0
  1  4  1  0
  2  3  2  0
  2 25  1  0
  3  5  1  0
  4  5  2  0
  4  6  1  0
  5  7  1  0
  6  8  2  0
  7  9  2  0
  7 16  1  0
  8  9  1  0
  8 10  1  0
 10 11  2  0
 10 12  1  0
 11 13  1  0
 12 14  2  0
 13 15  2  0
 13 20  1  0
 14 15  1  0
 14 17  1  0
 17 18  2  3
 18 19  1  0
 18 21  1  0
 19 28  1  0
 20 23  1  0
 21 22  2  0
 21 24  1  0
 24 29  1  0
 25 26  2  0
 25 27  1  0
 29 30  1  0
M  END

$$$$

     RDKit          3D

 31 34  0  0  0  0  0  0  0  0999 V2000
    0.0000    0.0000    0.0000 C   0  0  0  0  0  0  0  0  0  0  0  0
    0.0000    0.0000    1.3625 C   0  0  0  0  0  0  0  0  0  0  0  0
    1.3065    0.0000    1.7494 C   0  0  0  0  0  0  0  0  0  0  0  0
    1.3050   -0.1936   -0.3406 C   0  0  0  0  0  0  0  0  0  0  0  0
    2.1524   -0.1648    0.7160 O   0  0  0  0  0  0  0  0  0  0  0  0
    1.9677    0.0578    3.0775 C   0  0  0  0  0  0  0  0  0  0  0  0
    1.8967   -0.4501   -1.6313 C   0  0  0  0  0  0  0  0  0  0  0  0
    3.1378   -1.0704   -1.9626 C   0  0  0  0  0  0  0  0  0  0  0  0
    1.3112   -0.1185   -2.7541 N   0  0  0  0  0  0  0  0  0  0  0  0
    3.1966   -1.1131   -3.3154 C   0  0  0  0  0  0  0  0  0  0  0  0
    2.1296   -0.5592   -3.7183 O   0  0  0  0  0  0  0  0  0  0  0  0
    4.1562   -1.6657   -4.3427 C   0  0  0  0  0  0  0  0  0  0  0  0
    3.5442   -2.8144   -5.0030 N   0  0  0  0  0  0  0  0  0  0  0  0
    4.5023   -0.6131   -5.3693 C   0  0  0  0  0  0  0  0  0  0  0  0
    3.9982   -0.6840   -6.6416 C   0  0  0  0  0  0  0  0  0  0  0  0
    5.2216    0.5350   -4.8730 C   0  0  0  0  0  0  0  0  0  0  0  0
    5.5147    1.4834   -5.6215 O   0  0  0  0  0  0  0  0  0  0  0  0
    2.9683   -2.7789   -6.2202 C   0  0  0  0  0  0  0  0  0  0  0  0
    2.2498   -3.6283   -6.6915 O   0  0  0  0  0  0  0  0  0  0  0  0
    4.2390    0.2512   -7.5696 N   0  0  0  0  0  0  0  0  0  0  0  0
    3.2231   -1.6931   -7.1069 O   0  0  0  0  0  0  0  0  0  0  0  0
    5.6058    0.5628   -3.4479 C   0  0  0  0  0  0  0  0  0  0  0  0
    5.3976    1.5784   -2.6120 C   0  0  0  0  0  0  0  0  0  0  0  0
    5.6699    1.7090   -1.2012 C   0  0  0  0  0  0  0  0  0  0  0  0
    5.0439    2.5004   -0.2391 C   0  0  0  0  0  0  0  0  0  0  0  0
    6.6155    0.8519   -0.6603 C   0  0  0  0  0  0  0  0  0  0  0  0
    5.2359    2.6218    1.1283 C   0  0  0  0  0  0  0  0  0  0  0  0
    6.7466    0.9303    0.7254 C   0  0  0  0  0  0  0  0  0  0  0  0
    6.3119    1.7868    1.4936 C   0  0  0  0  0  0  0  0  0  0  0  0
    4.6640    3.3063    2.1686 O   0  0  0  0  0  0  0  0  0  0  0  0
    3.6211    4.0494    1.5976 C   0  0  0  0  0  0  0  0  0  0  0  0
  1  2  1  0
  1  4  2  0
  2  3  2  0
  3  5  1  0
  3  6  1  0
  4  5  1  0
  4  7  1  0
  7  8  1  0
  7  9  2  0
  8 10  2  0
  9 11  1  0
 10 11  1  0
 10 12  1  0
 12 13  1  0
 12 14  1  0
 13 18  1  0
 14 15  2  0
 14 16  1  0
 15 20  1  0
 15 21  1  0
 16 17  2  0
 16 22  1  0
 18 19  2  0
 18 21  1  0
 22 23  2  3
 23 24  1  0
 24 25  1  0
 24 26  2  0
 25 27  2  0
 26 28  1  0
 27 29  1  0
 27 30  1  0
 28 29  3  0
 30 31  1  0
M  END

$$$$

     RDKit          3D

 24 25  0  0  0  0  0  0  0  0999 V2000
    0.0000    0.0000    0.0000 C   0  0  0  0  0  0  0  0  0  0  0  0
    0.0000    0.0000    1.3165 O   0  0  0  0  0  0  0  0  0  0  0  0
    1.3508    0.0000    1.6924 C   0  0  0  0  0  0  0  0  0  0  0  0
    1.2715    0.1252   -0.5168 C   0  0  0  0  0  0  0  0  0  0  0  0
    2.1331    0.2630    0.5705 C   0  0  0  0  0  0  0  0  0  0  0  0
    1.8201   -0.0743    3.5089 Br  0  0  0  0  0  0  0  0  0  0  0  0
   -1.1453   -0.0563   -0.6620 O   0  0  0  0  0  0  0  0  0  0  0  0
   -2.2955    0.5585   -0.0643 C   0  0  0  0  0  0  0  0  0  0  0  0
   -2.6363    1.8320   -0.8708 C   0  0  0  0  0  0  0  0  0  0  0  0
   -3.3241    2.8264    0.0633 C   0  0  0  0  0  0  0  0  0  0  0  0
   -3.6830    1.5447   -1.9710 C   0  0  0  0  0  0  0  0  0  0  0  0
   -3.5166    0.2821   -2.8151 C   0  0  0  0  0  0  0  0  0  0  0  0
   -1.3229    2.3503   -1.4992 C   0  0  0  0  0  0  0  0  0  0  0  0
   -0.2301    2.6457   -0.5516 N   0  0  0  0  0  0  0  0  0  0  0  0
   -0.4559    3.7907    0.3799 C   0  0  0  0  0  0  0  0  0  0  0  0
    0.8342    4.1167    1.0947 C   0  0  0  0  0  0  0  0  0  0  0  0
    1.4162    5.3619    0.9938 C   0  0  0  0  0  0  0  0  0  0  0  0
    1.4571    3.1101    1.8311 C   0  0  0  0  0  0  0  0  0  0  0  0
    2.6632    5.5692    1.5625 C   0  0  0  0  0  0  0  0  0  0  0  0
    2.6908    3.3190    2.3900 C   0  0  0  0  0  0  0  0  0  0  0  0
    3.3568    4.5193    2.1809 C   0  0  0  0  0  0  0  0  0  0  0  0
    4.5689    4.5846    2.7097 O   0  0  0  0  0  0  0  0  0  0  0  0
    5.3725    5.7565    2.5854 C   0  0  0  0  0  0  0  0  0  0  0  0
    5.9082    5.9426    1.1760 C   0  0  0  0  0  0  0  0  0  0  0  0
  1  2  1  0
  1  4  2  0
  1  7  1  0
  2  3  1  0
  3  5  2  0
  3  6  1  0
  4  5  1  0
  7  8  1  0
  8  9  1  0
  9 10  1  0
  9 11  1  0
  9 13  1  0
 11 12  1  0
 13 14  1  0
 14 15  1  0
 15 16  1  0
 16 17  2  0
 16 18  1  0
 17 19  1  0
 18 20  2  0
 19 21  2  0
 20 21  1  0
 21 22  1  0
 22 23  1  0
 23 24  1  0
M  END

$$$$

     RDKit          3D

 31 34  0  0  0  0  0  0  0  0999 V2000
    0.0000    0.0000    0.0000 C   0  0  0  0  0  0  0  0  0  0  0  0
    0.0000    0.0000    1.3862 C   0  0  0  0  0  0  0  0  0  0  0  0
    1.3306    0.0000    1.8282 O   0  0  0  0  0  0  0  0  0  0  0  0
    1.3033    0.0000   -0.3974 C   0  0  0  0  0  0  0  0  0  0  0  0
    2.0914   -0.0517    0.7033 C   0  0  0  0  0  0  0  0  0  0  0  0
   -1.0646   -0.1049    2.2426 N   0  0  0  0  0  0  0  0  0  0  0  0
    3.5207   -0.1341    0.9402 C   0  0  0  0  0  0  0  0  0  0  0  0
    4.4260   -0.1115   -0.1408 C   0  0  0  0  0  0  0  0  0  0  0  0
    4.0165   -0.2254    2.2314 C   0  0  0  0  0  0  0  0  0  0  0  0
    5.7650   -0.1427    0.2160 C   0  0  0  0  0  0  0  0  0  0  0  0
    5.3504   -0.3633    2.5822 C   0  0  0  0  0  0  0  0  0  0  0  0
    6.3016   -0.1928    1.4931 C   0  0  0  0  0  0  0  0  0  0  0  0
   -2.4520   -0.1730    1.8840 C   0  0  0  0  0  0  0  0  0  0  0  0
   -1.0854    0.6722    3.4582 C   0  0  0  0  0  0  0  0  0  0  0  0
    4.0121   -0.0129   -1.4352 O   0  0  0  0  0  0  0  0  0  0  0  0
    4.8649    0.0630   -2.5254 C   0  0  0  0  0  0  0  0  0  0  0  0
    5.3135    1.3076   -2.9388 C   0  0  0  0  0  0  0  0  0  0  0  0
    5.3042   -1.1258   -3.1253 C   0  0  0  0  0  0  0  0  0  0  0  0
    6.1414    1.4395   -4.0727 C   0  0  0  0  0  0  0  0  0  0  0  0
    6.1036   -1.0994   -4.2284 C   0  0  0  0  0  0  0  0  0  0  0  0
    6.6633    2.6772   -4.5020 C   0  0  0  0  0  0  0  0  0  0  0  0
    6.4757    0.2453   -4.7441 C   0  0  0  0  0  0  0  0  0  0  0  0
    7.5037    2.7495   -5.5819 C   0  0  0  0  0  0  0  0  0  0  0  0
    7.3500    0.4234   -5.8466 C   0  0  0  0  0  0  0  0  0  0  0  0
    7.8828    1.6015   -6.3079 C   0  0  0  0  0  0  0  0  0  0  0  0
    4.9432    2.5471   -2.1928 C   0  0  0  0  0  0  0  0  0  0  0  0
    7.6435   -0.8114   -6.3840 O   0  0  0  0  0  0  0  0  0  0  0  0
    8.4623   -0.7625   -7.5211 C   0  0  0  0  0  0  0  0  0  0  0  0
    8.7585    1.7401   -7.5095 C   0  0  0  0  0  0  0  0  0  0  0  0
   -3.0613    1.2367    1.7114 C   0  0  0  0  0  0  0  0  0  0  0  0
    7.7637   -0.2793    1.8252 C   0  0  0  0  0  0  0  0  0  0  0  0
  1  2  2  0
  1  4  1  0
  2  3  1  0
  2  6  1  0
  3  5  1  0
  4  5  2  0
  5  7  1  0
  6 13  1  0
  6 14  1  0
  7  8  1  0
  7  9  2  0
  8 10  2  0
  8 15  1  0
  9 11  1  0
 10 12  1  0
 11 12  2  0
 12 31  1  0
 13 30  1  0
 15 16  1  0
 16 17  2  0
 16 18  1  0
 17 19  1  0
 17 26  1  0
 18 20  2  0
 19 21  2  0
 19 22  1  0
 20 22  1  0
 21 23  1  0
 22 24  2  0
 23 25  2  0
 24 25  1  0
 24 27  1  0
 25 29  1  0
 27 28  1  0
M  END

$$$$

     RDKit          3D

 28 30  0  0  0  0  0  0  0  0999 V2000
    0.0000    0.0000    0.0000 C   0  0  0  0  0  0  0  0  0  0  0  0
    0.0000    0.0000    1.3090 O   0  0  0  0  0  0  0  0  0  0  0  0
    1.2552    0.0000    1.6806 C   0  0  0  0  0  0  0  0  0  0  0  0
    1.1975   -0.1776   -0.5549 C   0  0  0  0  0  0  0  0  0  0  0  0
    2.0767   -0.2542    0.5450 C   0  0  0  0  0  0  0  0  0  0  0  0
    3.4862   -0.4916    0.6681 C   0  0  0  0  0  0  0  0  0  0  0  0
    4.1512   -1.0357   -0.5324 C   0  0  0  0  0  0  0  0  0  0  0  0
    1.5312    0.0549    3.0379 N   0  0  0  0  0  0  0  0  0  0  0  0
    2.4609    0.8474    3.6414 C   0  0  0  0  0  0  0  0  0  0  0  0
    0.9942   -0.7005    4.0473 C   0  0  0  0  0  0  0  0  0  0  0  0
    2.4171    0.5204    5.0041 C   0  0  0  0  0  0  0  0  0  0  0  0
    3.3146    1.8437    3.0612 C   0  0  0  0  0  0  0  0  0  0  0  0
    1.5200   -0.4345    5.2758 C   0  0  0  0  0  0  0  0  0  0  0  0
    3.3171    1.1379    5.9224 C   0  0  0  0  0  0  0  0  0  0  0  0
    4.1661    2.3986    4.0038 N   0  0  0  0  0  0  0  0  0  0  0  0
    3.3164    2.2032    1.9004 O   0  0  0  0  0  0  0  0  0  0  0  0
    4.1541    1.9955    5.4339 N   0  0  0  0  0  0  0  0  0  0  0  0
    5.3363   -0.4646   -0.9692 C   0  0  0  0  0  0  0  0  0  0  0  0
    6.0222   -0.9726   -2.0614 C   0  0  0  0  0  0  0  0  0  0  0  0
    5.5301   -2.1094   -2.6834 C   0  0  0  0  0  0  0  0  0  0  0  0
    4.4114   -2.7695   -2.1993 C   0  0  0  0  0  0  0  0  0  0  0  0
    3.4146    0.8383    7.3821 C   0  0  0  0  0  0  0  0  0  0  0  0
    4.0975   -0.3011    1.7172 O   0  0  0  0  0  0  0  0  0  0  0  0
    5.1109    3.3713    3.5357 C   0  0  0  0  0  0  0  0  0  0  0  0
    6.3598    2.6649    3.0107 C   0  0  0  0  0  0  0  0  0  0  0  0
    6.6379    1.5054    3.1569 O   0  0  0  0  0  0  0  0  0  0  0  0
    7.1752    3.5054    2.3927 O   0  0  0  0  0  0  0  0  0  0  0  0
    8.3476    2.9588    1.8113 C   0  0  0  0  0  0  0  0  0  0  0  0
  1  2  1  0
  1  4  2  0
  2  3  1  0
  3  5  2  0
  3  8  1  0
  4  5  1  0
  5  6  1  0
  6  7  1  0
  6 23  2  0
  7 18  2  0
  8  9  1  0
  8 10  1  0
  9 11  2  0
  9 12  1  0
 10 13  2  0
 11 13  1  0
 11 14  1  0
 12 15  1  0
 12 16  2  0
 14 17  2  0
 14 22  1  0
 15 17  1  0
 15 24  1  0
 18 19  2  0
 19 20  2  0
 20 21  2  0
 24 25  1  0
 25 26  2  0
 25 27  1  0
 27 28  1  0
M  END

$$$$

     RDKit          3D

 30 33  0  0  0  0  0  0  0  0999 V2000
    0.0000    0.0000    0.0000 C   0  0  0  0  0  0  0  0  0  0  0  0
    0.0000    0.0000    1.3241 O   0  0  0  0  0  0  0  0  0  0  0  0
    1.1859    0.0000    1.7842 C   0  0  0  0  0  0  0  0  0  0  0  0
    1.3203    0.0649   -0.4674 C   0  0  0  0  0  0  0  0  0  0  0  0
    2.1470    0.0513    0.6850 C   0  0  0  0  0  0  0  0  0  0  0  0
    3.4901    0.0349    0.9937 C   0  0  0  0  0  0  0  0  0  0  0  0
    3.7873   -0.0286    2.3708 C   0  0  0  0  0  0  0  0  0  0  0  0
    2.7536   -0.0728    3.3764 C   0  0  0  0  0  0  0  0  0  0  0  0
    5.1245   -0.1062    2.8118 C   0  0  0  0  0  0  0  0  0  0  0  0
    1.4532   -0.0546    3.0256 N   0  0  0  0  0  0  0  0  0  0  0  0
    3.1042   -0.0852    4.7590 C   0  0  0  0  0  0  0  0  0  0  0  0
    5.3651   -0.2166    4.1724 C   0  0  0  0  0  0  0  0  0  0  0  0
    4.4305   -0.1135    5.1324 C   0  0  0  0  0  0  0  0  0  0  0  0
    1.5369    0.0181   -1.9015 C   0  0  0  0  0  0  0  0  0  0  0  0
    0.6763   -0.3902   -2.6894 O   0  0  0  0  0  0  0  0  0  0  0  0
    2.1109   -0.0783    5.6574 O   0  0  0  0  0  0  0  0  0  0  0  0
   -1.3196    0.0000   -0.6805 C   0  0  0  0  0  0  0  0  0  0  0  0
    2.8021    0.4364   -2.4327 C   0  0  0  0  0  0  0  0  0  0  0  0
    3.0994    0.2906   -3.7625 C   0  0  0  0  0  0  0  0  0  0  0  0
    4.4580    0.6950   -4.2586 C   0  0  0  0  0  0  0  0  0  0  0  0
    5.4099    0.7865   -3.5429 O   0  0  0  0  0  0  0  0  0  0  0  0
    4.6491    0.9527   -5.5749 O   0  0  0  0  0  0  0  0  0  0  0  0
    3.4875    1.0439   -6.3692 C   0  0  0  0  0  0  0  0  0  0  0  0
    2.6913    2.3522   -6.1624 C   0  0  0  0  0  0  0  0  0  0  0  0
    1.5444    2.4992   -6.5127 O   0  0  0  0  0  0  0  0  0  0  0  0
    2.5428   -0.0882   -6.0839 C   0  0  0  0  0  0  0  0  0  0  0  0
    2.3747   -0.3733   -4.7621 C   0  0  0  0  0  0  0  0  0  0  0  0
    1.9821   -0.9621   -7.0142 C   0  0  0  0  0  0  0  0  0  0  0  0
    1.5627   -1.6382   -7.8320 N   0  0  0  0  0  0  0  0  0  0  0  0
    3.4776    3.2960   -5.6097 N   0  0  0  0  0  0  0  0  0  0  0  0
  1  2  1  0
  1  4  2  0
  1 17  1  0
  2  3  1  0
  3  5  2  0
  3 10  1  0
  4  5  1  0
  4 14  1  0
  5  6  1  0
  6  7  2  0
  7  8  1  0
  7  9  1  0
  8 10  2  0
  8 11  1  0
  9 12  2  0
 11 13  2  0
 11 16  1  0
 12 13  1  0
 14 15  2  0
 14 18  1  0
 18 19  2  3
 19 20  1  0
 19 27  1  0
 20 21  2  0
 20 22  1  0
 22 23  1  0
 23 24  1  0
 23 26  1  0
 24 25  2  0
 24 30  1  0
 26 27  2  0
 26 28  1  0
 28 29  3  0
M  END

$$$$

     RDKit          3D

 31 33  0  0  0  0  0  0  0  0999 V2000
    0.0000    0.0000    0.0000 O   0  0  0  0  0  0  0  0  0  0  0  0
    0.0000    0.0000    1.3625 C   0  0  0  0  0  0  0  0  0  0  0  0
    1.3225    0.0000    1.7779 C   0  0  0  0  0  0  0  0  0  0  0  0
    1.3560   -0.0666   -0.3505 C   0  0  0  0  0  0  0  0  0  0  0  0
    2.1893   -0.0572    0.6881 C   0  0  0  0  0  0  0  0  0  0  0  0
   -1.2059    0.0000    2.1396 C   0  0  0  0  0  0  0  0  0  0  0  0
   -1.1618   -0.0441    3.3601 O   0  0  0  0  0  0  0  0  0  0  0  0
    3.6328   -0.0499    0.8365 C   0  0  0  0  0  0  0  0  0  0  0  0
    4.3553    0.1396   -0.3407 C   0  0  0  0  0  0  0  0  0  0  0  0
    4.3120   -0.1992    2.0633 C   0  0  0  0  0  0  0  0  0  0  0  0
    5.7107    0.1880   -0.1448 C   0  0  0  0  0  0  0  0  0  0  0  0
    5.6994   -0.0679    2.2784 C   0  0  0  0  0  0  0  0  0  0  0  0
    6.3833    0.1267    1.0931 C   0  0  0  0  0  0  0  0  0  0  0  0
    3.5212   -0.4144    3.1421 O   0  0  0  0  0  0  0  0  0  0  0  0
    6.6260    0.3091   -1.1257 O   0  0  0  0  0  0  0  0  0  0  0  0
    1.7216   -0.1431   -1.7787 C   0  0  0  0  0  0  0  0  0  0  0  0
   -2.5199    0.0646    1.3801 C   0  0  0  0  0  0  0  0  0  0  0  0
   -2.8569    1.5177    0.9761 C   0  0  0  0  0  0  0  0  0  0  0  0
   -3.1564    2.3581    2.1949 C   0  0  0  0  0  0  0  0  0  0  0  0
   -4.2403    2.5105    2.6898 O   0  0  0  0  0  0  0  0  0  0  0  0
   -2.0578    2.8255    2.7498 O   0  0  0  0  0  0  0  0  0  0  0  0
    7.7229    0.2480    1.0208 O   0  0  0  0  0  0  0  0  0  0  0  0
    7.8515    0.3633   -0.3660 C   0  0  0  0  0  0  0  0  0  0  0  0
    8.5120    1.7201   -0.7385 C   0  0  0  0  0  0  0  0  0  0  0  0
    9.9434    1.8164   -0.2131 C   0  0  0  0  0  0  0  0  0  0  0  0
    8.6835    1.9425   -2.2403 C   0  0  0  0  0  0  0  0  0  0  0  0
    8.7584   -0.7365   -0.8655 C   0  0  0  0  0  0  0  0  0  0  0  0
    8.6499   -1.4156   -2.0599 C   0  0  0  0  0  0  0  0  0  0  0  0
    9.8508   -1.0108   -0.0169 C   0  0  0  0  0  0  0  0  0  0  0  0
    9.5325   -2.3804   -2.4954 C   0  0  0  0  0  0  0  0  0  0  0  0
   10.7487   -1.9905   -0.4639 C   0  0  0  0  0  0  0  0  0  0  0  0
  1  2  1  0
  1  4  1  0
  2  3  2  0
  2  6  1  0
  3  5  1  0
  4  5  2  0
  4 16  1  0
  5  8  1  0
  6  7  2  0
  6 17  1  0
  8  9  2  0
  8 10  1  0
  9 11  1  0
 10 12  2  0
 10 14  1  0
 11 13  2  0
 11 15  1  0
 12 13  1  0
 13 22  1  0
 15 23  1  0
 17 18  1  0
 18 19  1  0
 19 20  2  0
 19 21  1  0
 22 23  1  0
 23 24  1  0
 23 27  1  0
 24 25  1  0
 24 26  1  0
 27 28  2  0
 27 29  1  0
 28 30  2  0
 29 31  1  0
M  END

$$$$

     RDKit          3D

 30 33  0  0  0  0  0  0  0  0999 V2000
    0.0000    0.0000    0.0000 C   0  0  0  0  0  0  0  0  0  0  0  0
    0.0000    0.0000    1.4021 C   0  0  0  0  0  0  0  0  0  0  0  0
    1.2990    0.0000    1.7867 C   0  0  0  0  0  0  0  0  0  0  0  0
    1.3566    0.0000   -0.4137 C   0  0  0  0  0  0  0  0  0  0  0  0
    2.0973    0.0530    0.7474 O   0  0  0  0  0  0  0  0  0  0  0  0
   -1.0576    0.0000   -0.8467 N   0  0  0  0  0  0  0  0  0  0  0  0
   -2.3119   -0.3805   -0.4470 N   0  0  0  0  0  0  0  0  0  0  0  0
   -3.3232    0.2529   -0.9084 C   0  0  0  0  0  0  0  0  0  0  0  0
    2.1722   -0.0535   -1.5529 C   0  0  0  0  0  0  0  0  0  0  0  0
    2.6561   -0.1489   -2.5890 N   0  0  0  0  0  0  0  0  0  0  0  0
   -3.3512    1.3624   -1.6717 N   0  0  0  0  0  0  0  0  0  0  0  0
   -4.6823   -0.2975   -0.5456 C   0  0  0  0  0  0  0  0  0  0  0  0
   -5.7078    0.2834   -0.8111 O   0  0  0  0  0  0  0  0  0  0  0  0
   -4.5773   -1.4880    0.1089 N   0  0  0  0  0  0  0  0  0  0  0  0
   -5.5889   -2.2783    0.6526 C   0  0  0  0  0  0  0  0  0  0  0  0
   -6.9025   -1.9191    0.4406 C   0  0  0  0  0  0  0  0  0  0  0  0
   -5.2259   -3.4209    1.4404 C   0  0  0  0  0  0  0  0  0  0  0  0
   -7.8847   -2.7718    0.9644 C   0  0  0  0  0  0  0  0  0  0  0  0
   -6.2767   -4.2132    1.9240 C   0  0  0  0  0  0  0  0  0  0  0  0
   -3.9260   -3.8145    1.7889 C   0  0  0  0  0  0  0  0  0  0  0  0
   -7.6532   -3.9329    1.6698 C   0  0  0  0  0  0  0  0  0  0  0  0
   -6.1220   -5.4093    2.6703 C   0  0  0  0  0  0  0  0  0  0  0  0
   -3.7764   -4.9651    2.5032 C   0  0  0  0  0  0  0  0  0  0  0  0
   -4.8450   -5.8260    2.9415 C   0  0  0  0  0  0  0  0  0  0  0  0
   -7.3419   -5.9701    2.9443 O   0  0  0  0  0  0  0  0  0  0  0  0
   -8.3278   -5.1292    2.4301 C   0  0  0  0  0  0  0  0  0  0  0  0
   -9.0863   -2.2387    0.7079 O   0  0  0  0  0  0  0  0  0  0  0  0
   -9.0210   -1.0218   -0.0491 C   0  0  0  0  0  0  0  0  0  0  0  0
   -9.6047    0.1922    0.7617 C   0  0  0  0  0  0  0  0  0  0  0  0
   -9.8051   -0.2274    2.1898 C   0  0  0  0  0  0  0  0  0  0  0  0
  1  2  1  0
  1  4  2  0
  1  6  1  0
  2  3  2  0
  3  5  1  0
  4  5  1  0
  4  9  1  0
  6  7  1  0
  7  8  2  3
  8 11  1  0
  8 12  1  0
  9 10  3  0
 12 13  2  0
 12 14  1  0
 14 15  1  0
 15 16  2  0
 15 17  1  0
 16 18  1  0
 17 19  2  0
 17 20  1  0
 18 21  2  0
 18 27  1  0
 19 21  1  0
 19 22  1  0
 20 23  2  0
 21 26  1  0
 22 24  2  0
 22 25  1  0
 23 24  1  0
 25 26  1  0
 27 28  1  0
 28 29  1  0
 29 30  1  0
M  END

$$$$

     RDKit          3D

 30 31  0  0  0  0  0  0  0  0999 V2000
    0.0000    0.0000    0.0000 C   0  0  0  0  0  0  0  0  0  0  0  0
    0.0000    0.0000    1.4595 C   0  0  0  0  0  0  0  0  0  0  0  0
    1.3164    0.0000    1.7795 C   0  0  0  0  0  0  0  0  0  0  0  0
    1.2659    0.0622   -0.3273 C   0  0  0  0  0  0  0  0  0  0  0  0
    2.1089    0.0526    0.7234 O   0  0  0  0  0  0  0  0  0  0  0  0
   -1.1734    0.1156    2.4035 C   0  0  0  0  0  0  0  0  0  0  0  0
   -1.0990    0.0540   -0.9842 C   0  0  0  0  0  0  0  0  0  0  0  0
   -1.6805    1.5328    2.2776 C   0  0  0  0  0  0  0  0  0  0  0  0
   -2.7759    1.8772    1.5882 C   0  0  0  0  0  0  0  0  0  0  0  0
   -0.8804    2.6316    2.9363 C   0  0  0  0  0  0  0  0  0  0  0  0
   -2.2765   -0.9874    2.2070 C   0  0  0  0  0  0  0  0  0  0  0  0
   -3.3029   -0.8361    3.3285 C   0  0  0  0  0  0  0  0  0  0  0  0
   -2.9505   -0.8801    0.9822 O   0  0  0  0  0  0  0  0  0  0  0  0
   -0.6892   -0.1093    3.8257 C   0  0  0  0  0  0  0  0  0  0  0  0
   -0.9166   -1.2578    4.4919 C   0  0  0  0  0  0  0  0  0  0  0  0
   -3.5571    0.8767    1.0513 N   0  0  0  0  0  0  0  0  0  0  0  0
    0.0403    0.9190    4.4207 C   0  0  0  0  0  0  0  0  0  0  0  0
    0.6374    1.7598    4.9089 N   0  0  0  0  0  0  0  0  0  0  0  0
   -0.8182    3.8344    2.0105 C   0  0  0  0  0  0  0  0  0  0  0  0
   -0.5020   -1.5121    5.9311 C   0  0  0  0  0  0  0  0  0  0  0  0
   -3.1457    3.2831    1.3853 C   0  0  0  0  0  0  0  0  0  0  0  0
   -2.1311    4.1638    1.6552 C   0  0  0  0  0  0  0  0  0  0  0  0
   -4.4675    3.7962    1.0394 C   0  0  0  0  0  0  0  0  0  0  0  0
   -4.7736    4.9121    0.6921 O   0  0  0  0  0  0  0  0  0  0  0  0
   -0.9623   -2.6757    6.4503 F   0  0  0  0  0  0  0  0  0  0  0  0
   -2.3338    5.4650    1.4573 O   0  0  0  0  0  0  0  0  0  0  0  0
   -5.4198    2.8805    1.3028 O   0  0  0  0  0  0  0  0  0  0  0  0
   -0.9409   -0.5209    6.7046 F   0  0  0  0  0  0  0  0  0  0  0  0
   -6.7112    3.3131    0.9372 C   0  0  0  0  0  0  0  0  0  0  0  0
    0.8434   -1.5497    5.9850 F   0  0  0  0  0  0  0  0  0  0  0  0
  1  2  1  0
  1  4  2  0
  1  7  1  0
  2  3  2  0
  2  6  1  0
  3  5  1  0
  4  5  1  0
  6  8  1  0
  6 11  1  0
  6 14  1  0
  8  9  2  0
  8 10  1  0
  9 16  1  0
  9 21  1  0
 10 19  1  0
 11 12  1  0
 11 13  1  0
 14 15  2  3
 14 17  1  0
 15 20  1  0
 17 18  3  0
 19 22  1  0
 20 25  1  0
 20 28  1  0
 20 30  1  0
 21 22  2  0
 21 23  1  0
 22 26  1  0
 23 24  2  0
 23 27  1  0
 27 29  1  0
M  END

$$$$

     RDKit          3D

 21 23  0  0  0  0  0  0  0  0999 V2000
    0.0000    0.0000    0.0000 C   0  0  0  0  0  0  0  0  0  0  0  0
    0.0000    0.0000    1.4428 C   0  0  0  0  0  0  0  0  0  0  0  0
    1.3850    0.0000    1.6610 C   0  0  0  0  0  0  0  0  0  0  0  0
    1.2850    0.0000   -0.5198 C   0  0  0  0  0  0  0  0  0  0  0  0
    2.1217    0.0506    0.5248 O   0  0  0  0  0  0  0  0  0  0  0  0
   -1.0131   -0.0531    2.4571 C   0  0  0  0  0  0  0  0  0  0  0  0
   -0.5242    0.0281    3.7773 C   0  0  0  0  0  0  0  0  0  0  0  0
   -2.3984   -0.1257    2.1617 C   0  0  0  0  0  0  0  0  0  0  0  0
    0.8645    0.1528    4.0782 C   0  0  0  0  0  0  0  0  0  0  0  0
   -1.4209    0.0415    4.8551 C   0  0  0  0  0  0  0  0  0  0  0  0
   -3.2678   -0.1180    3.2108 C   0  0  0  0  0  0  0  0  0  0  0  0
    1.8231    0.1425    3.1209 C   0  0  0  0  0  0  0  0  0  0  0  0
   -2.7723   -0.0211    4.6924 C   0  0  0  0  0  0  0  0  0  0  0  0
   -1.0865    0.0534   -0.9730 C   0  0  0  0  0  0  0  0  0  0  0  0
   -2.1615    0.6280   -0.7669 O   0  0  0  0  0  0  0  0  0  0  0  0
   -3.9231    0.0536    5.9727 Cl  0  0  0  0  0  0  0  0  0  0  0  0
   -0.7828   -0.5742   -2.0632 O   0  0  0  0  0  0  0  0  0  0  0  0
   -1.7554   -0.5472   -3.1286 C   0  0  0  0  0  0  0  0  0  0  0  0
    1.9386    0.0572   -1.8328 C   0  0  0  0  0  0  0  0  0  0  0  0
   -1.0540   -1.1099   -4.3638 C   0  0  0  0  0  0  0  0  0  0  0  0
    0.0907   -0.2047   -4.7857 C   0  0  0  0  0  0  0  0  0  0  0  0
  1  2  1  0
  1  4  2  0
  1 14  1  0
  2  3  2  0
  2  6  1  0
  3  5  1  0
  3 12  1  0
  4  5  1  0
  4 19  1  0
  6  7  1  0
  6  8  1  0
  7  9  1  0
  7 10  1  0
  8 11  2  0
  9 12  2  0
 10 13  2  0
 11 13  1  0
 13 16  1  0
 14 15  2  0
 14 17  1  0
 17 18  1  0
 18 20  1  0
 20 21  1  0
M  END

$$$$

     RDKit          3D

 30 33  0  0  0  0  0  0  0  0999 V2000
    0.0000    0.0000    0.0000 C   0  0  0  0  0  0  0  0  0  0  0  0
    0.0000    0.0000    1.3704 C   0  0  0  0  0  0  0  0  0  0  0  0
    1.3508    0.0000    1.7462 C   0  0  0  0  0  0  0  0  0  0  0  0
    1.2953   -0.0636   -0.3348 C   0  0  0  0  0  0  0  0  0  0  0  0
    2.1382   -0.0541    0.7158 O   0  0  0  0  0  0  0  0  0  0  0  0
    2.0490   -0.0266   -2.0659 Br  0  0  0  0  0  0  0  0  0  0  0  0
    1.9117    0.0552    3.0389 C   0  0  0  0  0  0  0  0  0  0  0  0
    3.2441    0.1021    3.3558 C   0  0  0  0  0  0  0  0  0  0  0  0
    3.7655    0.2956    4.7052 C   0  0  0  0  0  0  0  0  0  0  0  0
    5.0352    0.5238    4.9273 N   0  0  0  0  0  0  0  0  0  0  0  0
    4.2418   -0.0307    2.3451 C   0  0  0  0  0  0  0  0  0  0  0  0
    5.0668   -0.1332    1.5637 N   0  0  0  0  0  0  0  0  0  0  0  0
    5.5466    0.7532    6.1352 N   0  0  0  0  0  0  0  0  0  0  0  0
    4.8127    0.4202    7.1572 C   0  0  0  0  0  0  0  0  0  0  0  0
    2.9704    0.3282    5.8208 N   0  0  0  0  0  0  0  0  0  0  0  0
    5.5029    0.4942    8.4410 C   0  0  0  0  0  0  0  0  0  0  0  0
    6.9009    0.4797    8.5475 C   0  0  0  0  0  0  0  0  0  0  0  0
    4.7567    0.5533    9.6361 C   0  0  0  0  0  0  0  0  0  0  0  0
    7.5870    0.4974    9.7245 C   0  0  0  0  0  0  0  0  0  0  0  0
    5.5331    0.5668   10.8036 C   0  0  0  0  0  0  0  0  0  0  0  0
    6.8435    0.5330   10.9318 C   0  0  0  0  0  0  0  0  0  0  0  0
    1.6068   -0.0685    5.9546 C   0  0  0  0  0  0  0  0  0  0  0  0
    3.3672    0.4862    9.7267 N   0  0  0  0  0  0  0  0  0  0  0  0
    2.6872    0.2658   10.9706 C   0  0  0  0  0  0  0  0  0  0  0  0
    3.4366   -0.0619    7.0940 C   0  0  0  0  0  0  0  0  0  0  0  0
    2.8671   -1.0150    7.8838 C   0  0  0  0  0  0  0  0  0  0  0  0
    1.2869   -1.3811    6.6106 C   0  0  0  0  0  0  0  0  0  0  0  0
    7.6408    0.4945   12.0457 O   0  0  0  0  0  0  0  0  0  0  0  0
    6.9473    0.4770   13.2641 C   0  0  0  0  0  0  0  0  0  0  0  0
    1.0843   -1.1761    5.1541 C   0  0  0  0  0  0  0  0  0  0  0  0
  1  2  1  0
  1  4  2  0
  2  3  2  0
  3  5  1  0
  3  7  1  0
  4  5  1  0
  4  6  1  0
  7  8  2  3
  8  9  1  0
  8 11  1  0
  9 10  2  0
  9 15  1  0
 10 13  1  0
 11 12  3  0
 13 14  2  0
 14 16  1  0
 14 25  1  0
 15 22  1  0
 15 25  1  0
 16 17  2  0
 16 18  1  0
 17 19  1  0
 18 20  2  0
 18 23  1  0
 19 21  2  0
 20 21  1  0
 21 28  1  0
 22 27  1  0
 22 30  1  0
 23 24  1  0
 25 26  2  0
 27 30  1  0
 28 29  1  0
M  END

$$$$

     RDKit          3D

 20 23  0  0  0  0  0  0  0  0999 V2000
    0.0000    0.0000    0.0000 O   0  0  0  0  0  0  0  0  0  0  0  0
    0.0000    0.0000    1.3625 C   0  0  0  0  0  0  0  0  0  0  0  0
    1.2898    0.0000    1.9124 C   0  0  0  0  0  0  0  0  0  0  0  0
    1.2976   -0.1925   -0.3387 C   0  0  0  0  0  0  0  0  0  0  0  0
    2.0757   -0.2563    0.7495 C   0  0  0  0  0  0  0  0  0  0  0  0
    1.5798   -0.2935   -1.7842 C   0  0  0  0  0  0  0  0  0  0  0  0
   -1.1440   -0.0562    2.1851 C   0  0  0  0  0  0  0  0  0  0  0  0
   -0.9030    0.2097    3.5572 C   0  0  0  0  0  0  0  0  0  0  0  0
   -2.4524   -0.3839    1.7738 C   0  0  0  0  0  0  0  0  0  0  0  0
   -2.0252    0.2146    4.4111 C   0  0  0  0  0  0  0  0  0  0  0  0
   -3.4965   -0.3533    2.6610 C   0  0  0  0  0  0  0  0  0  0  0  0
   -3.2789   -0.0753    3.9874 C   0  0  0  0  0  0  0  0  0  0  0  0
   -4.6485   -0.1093    4.5598 C   0  0  0  0  0  0  0  0  0  0  0  0
   -4.8908    0.2259    5.6877 O   0  0  0  0  0  0  0  0  0  0  0  0
   -5.5787   -0.4446    3.5997 N   0  0  0  0  0  0  0  0  0  0  0  0
    1.7657    0.1665    3.2555 C   0  0  0  0  0  0  0  0  0  0  0  0
    2.8835    0.1169    3.6928 O   0  0  0  0  0  0  0  0  0  0  0  0
   -4.8492   -0.5693    2.5096 O   0  0  0  0  0  0  0  0  0  0  0  0
    0.4388    0.4492    4.0050 C   0  0  0  0  0  0  0  0  0  0  0  0
    0.6534    0.9800    5.1006 O   0  0  0  0  0  0  0  0  0  0  0  0
  1  2  1  0
  1  4  1  0
  2  3  2  0
  2  7  1  0
  3  5  1  0
  3 16  1  0
  4  5  2  0
  4  6  1  0
  7  8  2  0
  7  9  1  0
  8 10  1  0
  8 19  1  0
  9 11  2  0
 10 12  2  0
 11 12  1  0
 11 18  1  0
 12 13  1  0
 13 14  2  0
 13 15  1  0
 15 18  1  0
 16 17  2  0
 16 19  1  0
 19 20  2  0
M  END

$$$$

     RDKit          3D

 30 33  0  0  0  0  0  0  0  0999 V2000
    0.0000    0.0000    0.0000 C   0  0  0  0  0  0  0  0  0  0  0  0
    0.0000    0.0000    1.5018 C   0  0  0  0  0  0  0  0  0  0  0  0
    1.3392    0.0000    1.8274 C   0  0  0  0  0  0  0  0  0  0  0  0
    1.2885    0.0000   -0.3929 C   0  0  0  0  0  0  0  0  0  0  0  0
    2.1745    0.0536    0.7133 O   0  0  0  0  0  0  0  0  0  0  0  0
   -1.0277    0.0000    2.3247 O   0  0  0  0  0  0  0  0  0  0  0  0
   -1.1263    0.0000   -0.9018 C   0  0  0  0  0  0  0  0  0  0  0  0
   -2.2079    0.0000   -0.2048 N   0  0  0  0  0  0  0  0  0  0  0  0
   -0.7552    0.0588   -2.3382 C   0  0  0  0  0  0  0  0  0  0  0  0
   -0.9863    1.2098   -3.0602 C   0  0  0  0  0  0  0  0  0  0  0  0
   -0.1064   -1.0388   -2.9594 C   0  0  0  0  0  0  0  0  0  0  0  0
   -0.5284    1.3637   -4.4024 C   0  0  0  0  0  0  0  0  0  0  0  0
    0.3437   -0.8804   -4.2949 C   0  0  0  0  0  0  0  0  0  0  0  0
    0.1013   -2.2612   -2.2876 C   0  0  0  0  0  0  0  0  0  0  0  0
    0.0980    0.3205   -4.9802 C   0  0  0  0  0  0  0  0  0  0  0  0
    0.9490   -1.9596   -4.9713 C   0  0  0  0  0  0  0  0  0  0  0  0
    0.6826   -3.2982   -2.9373 C   0  0  0  0  0  0  0  0  0  0  0  0
    1.0497   -3.1863   -4.3511 C   0  0  0  0  0  0  0  0  0  0  0  0
   -1.6486    2.2660   -2.5500 O   0  0  0  0  0  0  0  0  0  0  0  0
   -3.4068   -0.1555   -0.8666 C   0  0  0  0  0  0  0  0  0  0  0  0
   -3.7998   -1.2185   -1.6921 C   0  0  0  0  0  0  0  0  0  0  0  0
   -4.4152    0.7065   -0.4126 C   0  0  0  0  0  0  0  0  0  0  0  0
   -5.0729   -1.3903   -2.2336 C   0  0  0  0  0  0  0  0  0  0  0  0
   -5.6467    0.5530   -1.0121 C   0  0  0  0  0  0  0  0  0  0  0  0
   -5.9665   -0.3710   -1.9436 C   0  0  0  0  0  0  0  0  0  0  0  0
   -2.8938   -2.1979   -1.9277 O   0  0  0  0  0  0  0  0  0  0  0  0
   -5.4267   -2.5134   -3.1519 C   0  0  0  0  0  0  0  0  0  0  0  0
    1.6802   -4.2620   -4.9566 O   0  0  0  0  0  0  0  0  0  0  0  0
    1.4940   -4.5568   -6.2578 C   0  0  0  0  0  0  0  0  0  0  0  0
    0.7425   -3.9571   -6.9664 O   0  0  0  0  0  0  0  0  0  0  0  0
  1  2  1  0
  1  4  2  0
  1  7  1  0
  2  3  2  0
  2  6  1  0
  3  5  1  0
  4  5  1  0
  7  8  2  3
  7  9  1  0
  8 20  1  0
  9 10  2  0
  9 11  1  0
 10 12  1  0
 10 19  1  0
 11 13  2  0
 11 14  1  0
 12 15  2  0
 13 15  1  0
 13 16  1  0
 14 17  2  0
 16 18  2  0
 17 18  1  0
 18 28  1  0
 20 21  2  0
 20 22  1  0
 21 23  1  0
 21 26  1  0
 22 24  2  0
 23 25  2  0
 23 27  1  0
 24 25  1  0
 28 29  1  0
 29 30  2  0
M  END

$$$$

     RDKit          3D

 21 22  0  0  0  0  0  0  0  0999 V2000
    0.0000    0.0000    0.0000 O   0  0  0  0  0  0  0  0  0  0  0  0
    0.0000    0.0000    1.3782 C   0  0  0  0  0  0  0  0  0  0  0  0
    1.3004    0.0000    1.8583 C   0  0  0  0  0  0  0  0  0  0  0  0
    1.2179    0.1199   -0.3732 C   0  0  0  0  0  0  0  0  0  0  0  0
    2.0220    0.0407    0.7531 C   0  0  0  0  0  0  0  0  0  0  0  0
   -1.2219   -0.1813    2.0914 C   0  0  0  0  0  0  0  0  0  0  0  0
   -2.4087   -0.2981    1.6698 N   0  0  0  0  0  0  0  0  0  0  0  0
   -2.7975   -0.0787    0.3742 C   0  0  0  0  0  0  0  0  0  0  0  0
   -2.7700    1.1866   -0.2293 C   0  0  0  0  0  0  0  0  0  0  0  0
   -3.4632   -1.1378   -0.3112 C   0  0  0  0  0  0  0  0  0  0  0  0
   -3.2947    1.3767   -1.4981 C   0  0  0  0  0  0  0  0  0  0  0  0
   -3.9929   -0.9207   -1.5823 C   0  0  0  0  0  0  0  0  0  0  0  0
   -3.8671    0.3342   -2.2255 C   0  0  0  0  0  0  0  0  0  0  0  0
   -3.2570    2.6741   -1.9618 O   0  0  0  0  0  0  0  0  0  0  0  0
   -4.2187    0.5498   -3.6785 C   0  0  0  0  0  0  0  0  0  0  0  0
   -3.6853   -2.4323    0.0798 O   0  0  0  0  0  0  0  0  0  0  0  0
   -3.7920   -0.5614   -4.4346 O   0  0  0  0  0  0  0  0  0  0  0  0
   -4.5936   -1.9150   -2.2945 O   0  0  0  0  0  0  0  0  0  0  0  0
   -4.5194    3.2490   -2.2574 C   0  0  0  0  0  0  0  0  0  0  0  0
    1.7091    0.0538    3.1570 O   0  0  0  0  0  0  0  0  0  0  0  0
   -2.6594   -2.9739    0.9097 C   0  0  0  0  0  0  0  0  0  0  0  0
  1  2  1  0
  1  4  1  0
  2  3  2  0
  2  6  1  0
  3  5  1  0
  3 20  1  0
  4  5  2  0
  6  7  2  3
  7  8  1  0
  8  9  2  0
  8 10  1  0
  9 11  1  0
 10 12  2  0
 10 16  1  0
 11 13  2  0
 11 14  1  0
 12 13  1  0
 12 18  1  0
 13 15  1  0
 14 19  1  0
 15 17  1  0
 16 21  1  0
M  END

$$$$

     RDKit          3D

 29 31  0  0  0  0  0  0  0  0999 V2000
    0.0000    0.0000    0.0000 C   0  0  0  0  0  0  0  0  0  0  0  0
    0.0000    0.0000    1.3317 O   0  0  0  0  0  0  0  0  0  0  0  0
    1.2931    0.0000    1.7613 C   0  0  0  0  0  0  0  0  0  0  0  0
    1.3128   -0.0645   -0.4647 C   0  0  0  0  0  0  0  0  0  0  0  0
    2.1401    0.0582    0.7009 C   0  0  0  0  0  0  0  0  0  0  0  0
    1.5871    0.0585    3.2068 C   0  0  0  0  0  0  0  0  0  0  0  0
    1.7964   -0.1432   -1.7699 C   0  0  0  0  0  0  0  0  0  0  0  0
    2.1696   -0.2072   -2.8462 N   0  0  0  0  0  0  0  0  0  0  0  0
   -1.1922   -0.0586   -0.6891 N   0  0  0  0  0  0  0  0  0  0  0  0
   -1.5843    0.7097   -1.7641 C   0  0  0  0  0  0  0  0  0  0  0  0
   -0.8366    1.5653   -2.2138 O   0  0  0  0  0  0  0  0  0  0  0  0
   -2.9646    0.4679   -2.2800 C   0  0  0  0  0  0  0  0  0  0  0  0
   -3.8526   -0.5514   -1.8511 C   0  0  0  0  0  0  0  0  0  0  0  0
   -3.3553    1.3518   -3.2737 C   0  0  0  0  0  0  0  0  0  0  0  0
   -5.0784   -0.6491   -2.4908 C   0  0  0  0  0  0  0  0  0  0  0  0
   -4.5878    1.2527   -3.9177 C   0  0  0  0  0  0  0  0  0  0  0  0
   -5.5038    0.1696   -3.5147 C   0  0  0  0  0  0  0  0  0  0  0  0
   -3.4731   -1.3775   -0.8361 O   0  0  0  0  0  0  0  0  0  0  0  0
   -4.3463   -2.3782   -0.3388 C   0  0  0  0  0  0  0  0  0  0  0  0
   -4.9529    2.1843   -4.8655 N   0  0  0  0  0  0  0  0  0  0  0  0
   -4.0286    3.2294   -5.2334 C   0  0  0  0  0  0  0  0  0  0  0  0
   -5.6960    1.7050   -6.0161 C   0  0  0  0  0  0  0  0  0  0  0  0
   -4.7383    1.3775   -7.1723 C   0  0  0  0  0  0  0  0  0  0  0  0
   -5.5023   -1.7906    0.4857 C   0  0  0  0  0  0  0  0  0  0  0  0
   -3.9252    2.5151   -7.4929 N   0  0  0  0  0  0  0  0  0  0  0  0
   -4.9919   -1.0805    1.7279 C   0  0  0  0  0  0  0  0  0  0  0  0
   -3.0190    2.8958   -6.3184 C   0  0  0  0  0  0  0  0  0  0  0  0
   -3.9599    3.1612   -8.6744 C   0  0  0  0  0  0  0  0  0  0  0  0
   -3.3825    4.1795   -8.9441 O   0  0  0  0  0  0  0  0  0  0  0  0
  1  2  1  0
  1  4  2  0
  1  9  1  0
  2  3  1  0
  3  5  2  0
  3  6  1  0
  4  5  1  0
  4  7  1  0
  7  8  3  0
  9 10  1  0
 10 11  2  0
 10 12  1  0
 12 13  2  0
 12 14  1  0
 13 15  1  0
 13 18  1  0
 14 16  2  0
 15 17  2  0
 16 17  1  0
 16 20  1  0
 18 19  1  0
 19 24  1  0
 20 21  1  0
 20 22  1  0
 21 27  1  0
 22 23  1  0
 23 25  1  0
 24 26  1  0
 25 27  1  0
 25 28  1  0
 28 29  2  0
M  END

$$$$

     RDKit          3D

 19 20  0  0  0  0  0  0  0  0999 V2000
    0.0000    0.0000    0.0000 C   0  0  0  0  0  0  0  0  0  0  0  0
    0.0000    0.0000    1.5279 C   0  0  0  0  0  0  0  0  0  0  0  0
    1.2961    0.0000    1.8656 C   0  0  0  0  0  0  0  0  0  0  0  0
    1.4044    0.1383   -0.3006 C   0  0  0  0  0  0  0  0  0  0  0  0
    2.2225    0.0577    0.8452 O   0  0  0  0  0  0  0  0  0  0  0  0
   -0.9279   -0.0914   -0.7465 O   0  0  0  0  0  0  0  0  0  0  0  0
   -1.0990   -0.0540    2.5120 C   0  0  0  0  0  0  0  0  0  0  0  0
   -1.0252   -0.5921    3.5990 O   0  0  0  0  0  0  0  0  0  0  0  0
   -2.2896    0.6596    2.0888 C   0  0  0  0  0  0  0  0  0  0  0  0
   -3.5224    0.5402    2.7287 C   0  0  0  0  0  0  0  0  0  0  0  0
   -2.3855    1.8747    0.8569 S   0  0  0  0  0  0  0  0  0  0  0  0
   -4.4041    1.3649    2.1313 N   0  0  0  0  0  0  0  0  0  0  0  0
   -4.0659    2.1004    1.1642 C   0  0  0  0  0  0  0  0  0  0  0  0
   -4.9001    3.1115    0.4668 C   0  0  0  0  0  0  0  0  0  0  0  0
   -3.9039   -0.2778    3.9076 C   0  0  0  0  0  0  0  0  0  0  0  0
    1.8900   -0.0585    3.2345 C   0  0  0  0  0  0  0  0  0  0  0  0
    3.0855    0.4866    3.3168 F   0  0  0  0  0  0  0  0  0  0  0  0
    1.1811    0.5326    4.1944 F   0  0  0  0  0  0  0  0  0  0  0  0
    2.1219   -1.3140    3.6876 F   0  0  0  0  0  0  0  0  0  0  0  0
  1  2  1  0
  1  4  1  0
  1  6  2  0
  2  3  2  0
  2  7  1  0
  3  5  1  0
  3 16  1  0
  4  5  1  0
  7  8  2  0
  7  9  1  0
  9 10  1  0
  9 11  1  0
 10 12  1  0
 10 15  1  0
 11 13  1  0
 12 13  2  0
 13 14  1  0
 16 17  1  0
 16 18  1  0
 16 19  1  0
M  END

$$$$

     RDKit          3D

 23 25  0  0  0  0  0  0  0  0999 V2000
    0.0000    0.0000    0.0000 C   0  0  0  0  0  0  0  0  0  0  0  0
    0.0000    0.0000    1.3090 O   0  0  0  0  0  0  0  0  0  0  0  0
    1.2552    0.0000    1.6806 C   0  0  0  0  0  0  0  0  0  0  0  0
    1.1975   -0.1776   -0.5549 C   0  0  0  0  0  0  0  0  0  0  0  0
    2.0767   -0.2542    0.5450 C   0  0  0  0  0  0  0  0  0  0  0  0
    3.4543   -0.4834    0.7403 C   0  0  0  0  0  0  0  0  0  0  0  0
    3.8066   -0.5064    2.0402 N   0  0  0  0  0  0  0  0  0  0  0  0
    2.9640   -0.3342    3.0370 C   0  0  0  0  0  0  0  0  0  0  0  0
    1.6822   -0.1202    2.8795 N   0  0  0  0  0  0  0  0  0  0  0  0
    4.4069   -0.6508   -0.1751 N   0  0  0  0  0  0  0  0  0  0  0  0
    5.7018   -1.1966    0.1872 C   0  0  0  0  0  0  0  0  0  0  0  0
    6.1991   -2.2124   -0.8531 C   0  0  0  0  0  0  0  0  0  0  0  0
    6.7527   -0.1155    0.4347 C   0  0  0  0  0  0  0  0  0  0  0  0
    5.0458   -3.0805   -1.3535 C   0  0  0  0  0  0  0  0  0  0  0  0
    4.3172   -3.7892   -0.2829 N   0  0  0  0  0  0  0  0  0  0  0  0
    3.1602   -4.6001   -0.7109 C   0  0  0  0  0  0  0  0  0  0  0  0
    5.1432   -4.7080    0.5406 C   0  0  0  0  0  0  0  0  0  0  0  0
    2.3121   -4.8892    0.4944 C   0  0  0  0  0  0  0  0  0  0  0  0
    2.8029   -4.0690    1.4983 C   0  0  0  0  0  0  0  0  0  0  0  0
    1.2928   -5.7828    0.7841 C   0  0  0  0  0  0  0  0  0  0  0  0
    2.1499   -4.1062    2.7114 C   0  0  0  0  0  0  0  0  0  0  0  0
    0.6243   -5.8087    1.9891 C   0  0  0  0  0  0  0  0  0  0  0  0
    1.0086   -4.8750    2.9351 C   0  0  0  0  0  0  0  0  0  0  0  0
  1  2  1  0
  1  4  2  0
  2  3  1  0
  3  5  2  0
  3  9  1  0
  4  5  1  0
  5  6  1  0
  6  7  2  0
  6 10  1  0
  7  8  1  0
  8  9  2  0
 10 11  1  0
 11 12  1  0
 11 13  1  0
 12 14  1  0
 14 15  1  0
 15 16  1  0
 15 17  1  0
 16 18  1  0
 18 19  2  0
 18 20  1  0
 19 21  1  0
 20 22  2  0
 21 23  2  0
 22 23  1  0
M  END

$$$$

     RDKit          3D

 31 33  0  0  0  0  0  0  0  0999 V2000
    0.0000    0.0000    0.0000 C   0  0  0  0  0  0  0  0  0  0  0  0
    0.0000    0.0000    1.3241 C   0  0  0  0  0  0  0  0  0  0  0  0
    1.2858    0.0000    1.7749 O   0  0  0  0  0  0  0  0  0  0  0  0
    1.3874   -0.0682   -0.3587 C   0  0  0  0  0  0  0  0  0  0  0  0
    2.0965   -0.0523    0.7505 C   0  0  0  0  0  0  0  0  0  0  0  0
    3.5791   -0.0544    0.6708 C   0  0  0  0  0  0  0  0  0  0  0  0
    1.6839   -0.0242   -1.8042 C   0  0  0  0  0  0  0  0  0  0  0  0
   -0.9836   -0.0552   -1.0995 C   0  0  0  0  0  0  0  0  0  0  0  0
   -2.1211   -0.4090   -1.3009 O   0  0  0  0  0  0  0  0  0  0  0  0
    2.8047    1.0276   -2.0894 C   0  0  0  0  0  0  0  0  0  0  0  0
    2.0910   -1.2464   -2.2941 O   0  0  0  0  0  0  0  0  0  0  0  0
    3.3561    0.8599   -3.3588 O   0  0  0  0  0  0  0  0  0  0  0  0
    2.2344    2.4095   -1.7742 C   0  0  0  0  0  0  0  0  0  0  0  0
    2.1017    2.7867   -0.6268 O   0  0  0  0  0  0  0  0  0  0  0  0
    1.9055    3.2679   -2.9186 C   0  0  0  0  0  0  0  0  0  0  0  0
    1.9880    4.6712   -2.8073 C   0  0  0  0  0  0  0  0  0  0  0  0
    1.4517    2.7108   -4.1133 C   0  0  0  0  0  0  0  0  0  0  0  0
    1.5334    5.4558   -3.8979 C   0  0  0  0  0  0  0  0  0  0  0  0
    1.0114    3.4741   -5.1628 C   0  0  0  0  0  0  0  0  0  0  0  0
    0.9558    4.8721   -5.0443 C   0  0  0  0  0  0  0  0  0  0  0  0
    0.4613    5.5872   -6.0935 N   0  0  0  0  0  0  0  0  0  0  0  0
    2.5335    5.0837   -1.6468 O   0  0  0  0  0  0  0  0  0  0  0  0
    0.2248    0.1393   -2.1942 C   0  0  0  0  0  0  0  0  0  0  0  0
    2.5687    6.4304   -1.2581 C   0  0  0  0  0  0  0  0  0  0  0  0
    1.6482    6.9353   -3.8512 C   0  0  0  0  0  0  0  0  0  0  0  0
    1.5128    7.6854   -2.9316 O   0  0  0  0  0  0  0  0  0  0  0  0
    0.1295    5.0443   -7.3977 C   0  0  0  0  0  0  0  0  0  0  0  0
   -0.0984    6.2798   -8.2671 C   0  0  0  0  0  0  0  0  0  0  0  0
    2.0013    7.4653   -5.0735 O   0  0  0  0  0  0  0  0  0  0  0  0
   -0.6432    7.3386   -7.2957 C   0  0  0  0  0  0  0  0  0  0  0  0
    0.3236    7.0296   -6.0147 C   0  0  0  0  0  0  0  0  0  0  0  0
  1  2  2  0
  1  4  1  0
  1  8  1  0
  2  3  1  0
  3  5  1  0
  4  5  2  0
  4  7  1  0
  5  6  1  0
  7 10  1  0
  7 11  1  0
  7 23  1  0
  8  9  2  0
 10 12  1  0
 10 13  1  0
 13 14  2  0
 13 15  1  0
 15 16  2  0
 15 17  1  0
 16 18  1  0
 16 22  1  0
 17 19  2  0
 18 20  2  0
 18 25  1  0
 19 20  1  0
 20 21  1  0
 21 27  1  0
 21 31  1  0
 22 24  1  0
 25 26  2  0
 25 29  1  0
 27 28  1  0
 28 30  1  0
 30 31  1  0
M  END

$$$$

     RDKit          3D

 30 32  0  0  0  0  0  0  0  0999 V2000
    0.0000    0.0000    0.0000 C   0  0  0  0  0  0  0  0  0  0  0  0
    0.0000    0.0000    1.4021 C   0  0  0  0  0  0  0  0  0  0  0  0
    1.2778    0.0000    1.8034 C   0  0  0  0  0  0  0  0  0  0  0  0
    1.3489    0.0000   -0.4113 C   0  0  0  0  0  0  0  0  0  0  0  0
    2.1369   -0.0517    0.6894 O   0  0  0  0  0  0  0  0  0  0  0  0
   -1.1008    0.0000   -0.8814 C   0  0  0  0  0  0  0  0  0  0  0  0
   -1.9649   -0.0425   -1.6552 N   0  0  0  0  0  0  0  0  0  0  0  0
    1.8166    0.0527   -1.6652 N   0  0  0  0  0  0  0  0  0  0  0  0
    3.2203   -0.0099   -1.9550 C   0  0  0  0  0  0  0  0  0  0  0  0
    0.9080    0.2507   -2.7792 C   0  0  0  0  0  0  0  0  0  0  0  0
    1.7380    0.8892   -3.9279 C   0  0  0  0  0  0  0  0  0  0  0  0
    1.9352    0.0575    3.1240 C   0  0  0  0  0  0  0  0  0  0  0  0
    3.6261    1.3397   -2.5676 C   0  0  0  0  0  0  0  0  0  0  0  0
    2.4950    1.9809   -3.2844 N   0  0  0  0  0  0  0  0  0  0  0  0
    2.9182    3.0707   -4.1860 C   0  0  0  0  0  0  0  0  0  0  0  0
    1.8012    4.0381   -4.5743 C   0  0  0  0  0  0  0  0  0  0  0  0
    1.1673    4.7099   -3.3131 C   0  0  0  0  0  0  0  0  0  0  0  0
   -0.2176    4.0987   -3.1062 C   0  0  0  0  0  0  0  0  0  0  0  0
   -0.3379    2.9235   -2.7932 O   0  0  0  0  0  0  0  0  0  0  0  0
   -1.2869    4.8941   -3.3021 N   0  0  0  0  0  0  0  0  0  0  0  0
   -1.2926    6.2754   -3.6238 C   0  0  0  0  0  0  0  0  0  0  0  0
   -2.3963    6.7855   -3.8035 O   0  0  0  0  0  0  0  0  0  0  0  0
    2.3179    5.2071   -5.3791 C   0  0  0  0  0  0  0  0  0  0  0  0
    3.4035    6.0178   -5.1264 C   0  0  0  0  0  0  0  0  0  0  0  0
    1.4476    5.4184   -6.4579 C   0  0  0  0  0  0  0  0  0  0  0  0
    3.6326    7.0658   -6.0042 C   0  0  0  0  0  0  0  0  0  0  0  0
    1.6704    6.4763   -7.3254 C   0  0  0  0  0  0  0  0  0  0  0  0
    2.7890    7.2606   -7.0766 C   0  0  0  0  0  0  0  0  0  0  0  0
    2.9437    8.2875   -7.9223 F   0  0  0  0  0  0  0  0  0  0  0  0
    0.8547    6.1693   -3.7470 C   0  0  0  0  0  0  0  0  0  0  0  0
  1  2  1  0
  1  4  2  0
  1  6  1  0
  2  3  2  0
  3  5  1  0
  3 12  1  0
  4  5  1  0
  4  8  1  0
  6  7  3  0
  8  9  1  0
  8 10  1  0
  9 13  1  0
 10 11  1  0
 11 14  1  0
 13 14  1  0
 14 15  1  0
 15 16  1  0
 16 17  1  0
 16 23  1  0
 17 18  1  0
 17 30  1  0
 18 19  2  0
 18 20  1  0
 20 21  1  0
 21 22  2  0
 23 24  2  0
 23 25  1  0
 24 26  1  0
 25 27  2  0
 26 28  2  0
 27 28  1  0
 28 29  1  0
M  END

$$$$

     RDKit          3D

 31 34  0  0  0  0  0  0  0  0999 V2000
    0.0000    0.0000    0.0000 C   0  0  0  0  0  0  0  0  0  0  0  0
    0.0000    0.0000    1.4595 C   0  0  0  0  0  0  0  0  0  0  0  0
    1.2552    0.0000    1.8311 C   0  0  0  0  0  0  0  0  0  0  0  0
    1.3635    0.0000   -0.2904 C   0  0  0  0  0  0  0  0  0  0  0  0
    2.1628    0.0483    0.7074 O   0  0  0  0  0  0  0  0  0  0  0  0
   -1.0515    0.0000   -0.8419 N   0  0  0  0  0  0  0  0  0  0  0  0
   -0.7923   -0.0516   -2.1163 N   0  0  0  0  0  0  0  0  0  0  0  0
   -1.8312   -0.1031   -3.0085 C   0  0  0  0  0  0  0  0  0  0  0  0
   -1.5002   -0.2087   -4.3752 C   0  0  0  0  0  0  0  0  0  0  0  0
   -3.1958   -0.1038   -2.6222 C   0  0  0  0  0  0  0  0  0  0  0  0
   -2.4612   -0.3230   -5.3676 C   0  0  0  0  0  0  0  0  0  0  0  0
   -4.1554   -0.2129   -3.6165 C   0  0  0  0  0  0  0  0  0  0  0  0
   -3.7922   -0.3252   -4.9016 C   0  0  0  0  0  0  0  0  0  0  0  0
   -2.2498   -0.4972   -6.8183 C   0  0  0  0  0  0  0  0  0  0  0  0
   -3.1175   -0.5497   -7.6573 O   0  0  0  0  0  0  0  0  0  0  0  0
   -0.9366   -0.5494   -7.2066 N   0  0  0  0  0  0  0  0  0  0  0  0
   -3.6197   -0.0553   -1.3687 O   0  0  0  0  0  0  0  0  0  0  0  0
    2.0285    0.0582   -1.6262 C   0  0  0  0  0  0  0  0  0  0  0  0
    1.6309   -0.9738   -2.4087 F   0  0  0  0  0  0  0  0  0  0  0  0
   -0.6919   -0.7594   -8.5385 C   0  0  0  0  0  0  0  0  0  0  0  0
   -1.9002   -0.9651   -9.7777 S   0  0  0  0  0  0  0  0  0  0  0  0
    0.5329   -0.7696   -8.9562 N   0  0  0  0  0  0  0  0  0  0  0  0
   -0.8009   -1.2050  -10.9403 N   0  0  0  0  0  0  0  0  0  0  0  0
    0.3656   -1.0526  -10.2785 C   0  0  0  0  0  0  0  0  0  0  0  0
    1.7620    1.1812   -2.3355 F   0  0  0  0  0  0  0  0  0  0  0  0
    1.6222   -1.1808  -10.9928 C   0  0  0  0  0  0  0  0  0  0  0  0
    1.4036   -1.5168  -12.3197 C   0  0  0  0  0  0  0  0  0  0  0  0
    2.9227   -1.0588  -10.5287 C   0  0  0  0  0  0  0  0  0  0  0  0
    2.6292   -1.6763  -12.9473 C   0  0  0  0  0  0  0  0  0  0  0  0
    4.1544   -1.2216  -11.1611 C   0  0  0  0  0  0  0  0  0  0  0  0
    3.9151   -1.4992  -12.4842 C   0  0  0  0  0  0  0  0  0  0  0  0
  1  2  1  0
  1  4  2  0
  1  6  1  0
  2  3  2  0
  3  5  1  0
  4  5  1  0
  4 18  1  0
  6  7  1  0
  7  8  1  0
  8  9  2  0
  8 10  1  0
  9 11  1  0
 10 12  2  0
 10 17  1  0
 11 13  2  0
 11 14  1  0
 12 13  1  0
 14 15  2  0
 14 16  1  0
 16 20  1  0
 18 19  1  0
 18 25  1  0
 20 21  1  0
 20 22  2  0
 21 23  1  0
 22 24  1  0
 23 24  1  0
 24 26  1  0
 26 27  2  0
 26 28  1  0
 27 29  1  0
 28 30  2  0
 29 31  2  0
 30 31  1  0
M  END

$$$$

     RDKit          3D

 29 31  0  0  0  0  0  0  0  0999 V2000
    0.0000    0.0000    0.0000 O   0  0  0  0  0  0  0  0  0  0  0  0
    0.0000    0.0000    1.2721 C   0  0  0  0  0  0  0  0  0  0  0  0
    1.3047    0.0000    1.8283 C   0  0  0  0  0  0  0  0  0  0  0  0
    1.2256    0.0602   -0.4338 C   0  0  0  0  0  0  0  0  0  0  0  0
    2.1183    0.0501    0.6787 C   0  0  0  0  0  0  0  0  0  0  0  0
    1.7475    0.0583    3.2353 C   0  0  0  0  0  0  0  0  0  0  0  0
    1.5075    1.0525    3.9297 O   0  0  0  0  0  0  0  0  0  0  0  0
    1.6708    0.0237   -1.8409 C   0  0  0  0  0  0  0  0  0  0  0  0
    2.4685   -0.9934    3.7157 N   0  0  0  0  0  0  0  0  0  0  0  0
    2.5574   -2.1920    2.9174 C   0  0  0  0  0  0  0  0  0  0  0  0
    3.4529    0.1525    0.6337 O   0  0  0  0  0  0  0  0  0  0  0  0
    1.2327   -3.0219    2.9039 C   0  0  0  0  0  0  0  0  0  0  0  0
    0.3474   -2.4545    3.9521 N   0  0  0  0  0  0  0  0  0  0  0  0
    1.0712   -2.4655    5.2484 C   0  0  0  0  0  0  0  0  0  0  0  0
   -0.9547   -3.1117    4.0034 C   0  0  0  0  0  0  0  0  0  0  0  0
   -2.0885   -2.3146    4.1546 C   0  0  0  0  0  0  0  0  0  0  0  0
   -1.0654   -4.4909    3.9202 C   0  0  0  0  0  0  0  0  0  0  0  0
   -3.3123   -2.9824    4.1483 C   0  0  0  0  0  0  0  0  0  0  0  0
   -2.2888   -5.1593    3.9145 C   0  0  0  0  0  0  0  0  0  0  0  0
   -3.3759   -4.3434    4.0009 C   0  0  0  0  0  0  0  0  0  0  0  0
   -2.5251   -6.4870    3.7852 O   0  0  0  0  0  0  0  0  0  0  0  0
   -1.4131   -7.3121    3.9474 C   0  0  0  0  0  0  0  0  0  0  0  0
   -2.1321   -0.8079    4.3433 C   0  0  0  0  0  0  0  0  0  0  0  0
   -2.7721   -0.3966    5.6886 C   0  0  0  0  0  0  0  0  0  0  0  0
   -0.7389   -7.1421    5.1101 F   0  0  0  0  0  0  0  0  0  0  0  0
    3.0741   -1.1702    5.0317 C   0  0  0  0  0  0  0  0  0  0  0  0
    2.2753   -2.1514    5.8882 C   0  0  0  0  0  0  0  0  0  0  0  0
   -0.4619   -7.2193    3.0091 F   0  0  0  0  0  0  0  0  0  0  0  0
   -0.8464   -0.2108    4.2972 O   0  0  0  0  0  0  0  0  0  0  0  0
  1  2  1  0
  1  4  1  0
  2  3  2  0
  3  5  1  0
  3  6  1  0
  4  5  2  0
  4  8  1  0
  5 11  1  0
  6  7  2  0
  6  9  1  0
  9 10  1  0
  9 26  1  0
 10 12  1  0
 12 13  1  0
 13 14  1  0
 13 15  1  0
 14 27  1  0
 15 16  2  0
 15 17  1  0
 16 18  1  0
 16 23  1  0
 17 19  2  0
 18 20  2  0
 19 20  1  0
 19 21  1  0
 21 22  1  0
 22 25  1  0
 22 28  1  0
 23 24  1  0
 23 29  1  0
 26 27  1  0
M  END

$$$$

     RDKit          3D

 32 37  0  0  0  0  0  0  0  0999 V2000
    0.0000    0.0000    0.0000 C   0  0  0  0  0  0  0  0  0  0  0  0
    0.0000    0.0000    1.3470 O   0  0  0  0  0  0  0  0  0  0  0  0
    1.3547    0.0000    1.6764 C   0  0  0  0  0  0  0  0  0  0  0  0
    1.2462    0.0000   -0.6426 C   0  0  0  0  0  0  0  0  0  0  0  0
    2.1684    0.0558    0.5088 C   0  0  0  0  0  0  0  0  0  0  0  0
    3.5833    0.1375    0.5611 C   0  0  0  0  0  0  0  0  0  0  0  0
    4.0540    0.2192    1.7798 N   0  0  0  0  0  0  0  0  0  0  0  0
    3.3947    0.2351    2.9455 C   0  0  0  0  0  0  0  0  0  0  0  0
    4.0406    0.2803    4.4485 S   0  0  0  0  0  0  0  0  0  0  0  0
    1.6245    0.1347    2.9217 S   0  0  0  0  0  0  0  0  0  0  0  0
    4.5264    0.1894   -0.5956 C   0  0  0  0  0  0  0  0  0  0  0  0
    1.5129   -0.0531   -1.9541 N   0  0  0  0  0  0  0  0  0  0  0  0
    2.5970   -0.1001   -2.5610 N   0  0  0  0  0  0  0  0  0  0  0  0
    3.8262    0.0883   -1.9667 C   0  0  0  0  0  0  0  0  0  0  0  0
    4.2452    1.3250   -1.4344 C   0  0  0  0  0  0  0  0  0  0  0  0
    4.7926   -0.9279   -2.2277 C   0  0  0  0  0  0  0  0  0  0  0  0
    5.5196    1.6124   -1.0203 C   0  0  0  0  0  0  0  0  0  0  0  0
    6.0675   -0.5891   -1.7767 C   0  0  0  0  0  0  0  0  0  0  0  0
    6.4789    0.6070   -1.1324 C   0  0  0  0  0  0  0  0  0  0  0  0
    4.5097   -2.1174   -2.8638 N   0  0  0  0  0  0  0  0  0  0  0  0
    3.4540   -2.2159   -3.8058 C   0  0  0  0  0  0  0  0  0  0  0  0
    3.4046   -1.3041   -4.8593 C   0  0  0  0  0  0  0  0  0  0  0  0
    2.5335   -3.2775   -3.6870 C   0  0  0  0  0  0  0  0  0  0  0  0
    2.4204   -1.3918   -5.8315 C   0  0  0  0  0  0  0  0  0  0  0  0
    1.5430   -3.3613   -4.6645 C   0  0  0  0  0  0  0  0  0  0  0  0
    1.5078   -2.4442   -5.7770 C   0  0  0  0  0  0  0  0  0  0  0  0
    0.5653   -4.5115   -4.6127 C   0  0  0  0  0  0  0  0  0  0  0  0
    0.6998   -5.2760   -5.7420 F   0  0  0  0  0  0  0  0  0  0  0  0
    0.5320   -2.6018   -6.7601 O   0  0  0  0  0  0  0  0  0  0  0  0
    2.5028   -4.3277   -2.5898 C   0  0  0  0  0  0  0  0  0  0  0  0
    0.6472   -5.2682   -3.5292 F   0  0  0  0  0  0  0  0  0  0  0  0
   -0.4518   -1.5918   -6.7372 C   0  0  0  0  0  0  0  0  0  0  0  0
  1  2  1  0
  1  4  2  0
  2  3  1  0
  3  5  2  0
  3 10  1  0
  4  5  1  0
  4 12  1  0
  5  6  1  0
  6  7  2  0
  6 11  1  0
  7  8  1  0
  8  9  1  0
  8 10  1  0
 11 14  1  0
 11 15  1  0
 12 13  2  0
 13 14  1  0
 14 15  1  0
 14 16  1  0
 15 17  2  0
 16 18  1  0
 16 20  1  0
 17 19  1  0
 18 19  1  0
 20 21  1  0
 21 22  2  0
 21 23  1  0
 22 24  1  0
 23 25  2  0
 23 30  1  0
 24 26  2  0
 25 26  1  0
 25 27  1  0
 26 29  1  0
 27 28  1  0
 27 31  1  0
 29 32  1  0
M  END

$$$$

     RDKit          3D

 31 33  0  0  0  0  0  0  0  0999 V2000
    0.0000    0.0000    0.0000 C   0  0  0  0  0  0  0  0  0  0  0  0
    0.0000    0.0000    1.3862 C   0  0  0  0  0  0  0  0  0  0  0  0
    1.3291    0.0000    1.7797 O   0  0  0  0  0  0  0  0  0  0  0  0
    1.3279    0.0652   -0.4701 C   0  0  0  0  0  0  0  0  0  0  0  0
    2.0875    0.0483    0.7179 C   0  0  0  0  0  0  0  0  0  0  0  0
    1.8226    0.0340   -1.7903 C   0  0  0  0  0  0  0  0  0  0  0  0
    1.1610    0.1296   -2.9686 C   0  0  0  0  0  0  0  0  0  0  0  0
   -0.1348    0.4075   -3.1626 N   0  0  0  0  0  0  0  0  0  0  0  0
   -0.7394    0.1570   -4.4301 C   0  0  0  0  0  0  0  0  0  0  0  0
   -1.5098    1.3452   -4.9556 C   0  0  0  0  0  0  0  0  0  0  0  0
   -1.1149    2.2753   -5.9161 C   0  0  0  0  0  0  0  0  0  0  0  0
   -2.7861    1.5353   -4.4493 C   0  0  0  0  0  0  0  0  0  0  0  0
   -1.8979    3.2478   -6.3338 N   0  0  0  0  0  0  0  0  0  0  0  0
   -3.5628    2.6019   -4.9468 C   0  0  0  0  0  0  0  0  0  0  0  0
   -3.0775    3.3663   -5.8529 N   0  0  0  0  0  0  0  0  0  0  0  0
   -1.6159   -1.1031   -4.3592 C   0  0  0  0  0  0  0  0  0  0  0  0
   -0.7794   -2.2853   -3.9612 C   0  0  0  0  0  0  0  0  0  0  0  0
    0.0230   -2.8975   -4.9228 C   0  0  0  0  0  0  0  0  0  0  0  0
   -0.7358   -2.7373   -2.6431 C   0  0  0  0  0  0  0  0  0  0  0  0
    0.9134   -3.9123   -4.5749 C   0  0  0  0  0  0  0  0  0  0  0  0
    0.1598   -3.7606   -2.3011 C   0  0  0  0  0  0  0  0  0  0  0  0
    1.0402   -4.3570   -3.2597 C   0  0  0  0  0  0  0  0  0  0  0  0
   -0.9959   -0.0522    2.3832 C   0  0  0  0  0  0  0  0  0  0  0  0
   -2.3003   -0.0565    2.4923 N   0  0  0  0  0  0  0  0  0  0  0  0
   -2.9000   -0.1688    3.6419 N   0  0  0  0  0  0  0  0  0  0  0  0
    1.6895   -4.4325   -5.5130 F   0  0  0  0  0  0  0  0  0  0  0  0
   -3.2856    0.6798   -3.3662 C   0  0  0  0  0  0  0  0  0  0  0  0
   -2.7186    0.6969   -2.1014 C   0  0  0  0  0  0  0  0  0  0  0  0
   -4.3944   -0.1217   -3.6340 C   0  0  0  0  0  0  0  0  0  0  0  0
   -3.1209   -0.1225   -1.0688 C   0  0  0  0  0  0  0  0  0  0  0  0
   -1.5158   -2.2124   -1.7216 F   0  0  0  0  0  0  0  0  0  0  0  0
  1  2  2  0
  1  4  1  0
  2  3  1  0
  2 23  1  0
  3  5  1  0
  4  5  2  0
  4  6  1  0
  6  7  2  3
  7  8  1  0
  8  9  1  0
  9 10  1  0
  9 16  1  0
 10 11  2  0
 10 12  1  0
 11 13  1  0
 12 14  2  0
 12 27  1  0
 13 15  2  0
 14 15  1  0
 16 17  1  0
 17 18  2  0
 17 19  1  0
 18 20  1  0
 19 21  2  0
 19 31  1  0
 20 22  2  0
 20 26  1  0
 21 22  1  0
 23 24  2  3
 24 25  1  0
 27 28  2  0
 27 29  1  0
 28 30  2  0
M  END

$$$$

     RDKit          3D

 22 23  0  0  0  0  0  0  0  0999 V2000
    0.0000    0.0000    0.0000 C   0  0  0  0  0  0  0  0  0  0  0  0
    0.0000    0.0000    1.4511 C   0  0  0  0  0  0  0  0  0  0  0  0
    1.2352    0.0000    1.8615 C   0  0  0  0  0  0  0  0  0  0  0  0
    1.2805    0.0629   -0.3310 C   0  0  0  0  0  0  0  0  0  0  0  0
    2.0741    0.1542    0.7824 O   0  0  0  0  0  0  0  0  0  0  0  0
    1.7679   -0.0525    3.0892 N   0  0  0  0  0  0  0  0  0  0  0  0
    1.0175   -0.4557    4.2232 C   0  0  0  0  0  0  0  0  0  0  0  0
    0.7152   -1.8065    4.2966 C   0  0  0  0  0  0  0  0  0  0  0  0
    0.4570    0.3845    5.2073 C   0  0  0  0  0  0  0  0  0  0  0  0
   -0.0585   -2.3130    5.3292 C   0  0  0  0  0  0  0  0  0  0  0  0
   -0.2048   -0.2074    6.2822 C   0  0  0  0  0  0  0  0  0  0  0  0
   -0.4899   -1.4376    6.3470 C   0  0  0  0  0  0  0  0  0  0  0  0
   -0.4235   -3.6310    5.4163 O   0  0  0  0  0  0  0  0  0  0  0  0
   -0.1042   -4.5113    4.3511 C   0  0  0  0  0  0  0  0  0  0  0  0
    2.0086    0.0415   -1.6151 N   0  0  0  0  0  0  0  0  0  0  0  0
   -1.1098   -1.7431    7.5033 O   0  0  0  0  0  0  0  0  0  0  0  0
    0.4117    1.7105    5.0936 O   0  0  0  0  0  0  0  0  0  0  0  0
   -1.1242   -3.0911    7.9940 C   0  0  0  0  0  0  0  0  0  0  0  0
   -0.6763   -5.8770    4.6907 C   0  0  0  0  0  0  0  0  0  0  0  0
    0.2185   -3.7553    8.1010 C   0  0  0  0  0  0  0  0  0  0  0  0
    1.3711   -3.1192    8.1179 C   0  0  0  0  0  0  0  0  0  0  0  0
    0.9904    2.5536    4.1108 C   0  0  0  0  0  0  0  0  0  0  0  0
  1  2  1  0
  1  4  2  0
  2  3  2  0
  3  5  1  0
  3  6  1  0
  4  5  1  0
  4 15  1  0
  6  7  1  0
  7  8  2  0
  7  9  1  0
  8 10  1  0
  9 11  2  0
  9 17  1  0
 10 12  2  0
 10 13  1  0
 11 12  1  0
 12 16  1  0
 13 14  1  0
 14 19  1  0
 16 18  1  0
 17 22  1  0
 18 20  1  0
 20 21  2  0
M  END

$$$$

     RDKit          3D

 30 33  0  0  0  0  0  0  0  0999 V2000
    0.0000    0.0000    0.0000 C   0  0  0  0  0  0  0  0  0  0  0  0
    0.0000    0.0000    1.3548 C   0  0  0  0  0  0  0  0  0  0  0  0
    1.2606    0.0000    1.8922 O   0  0  0  0  0  0  0  0  0  0  0  0
    1.4112    0.0000   -0.3006 C   0  0  0  0  0  0  0  0  0  0  0  0
    2.1476   -0.0527    0.8539 C   0  0  0  0  0  0  0  0  0  0  0  0
   -1.1657    0.0000   -0.9333 C   0  0  0  0  0  0  0  0  0  0  0  0
    2.0537   -0.0562   -1.5913 C   0  0  0  0  0  0  0  0  0  0  0  0
    1.5052   -0.0570   -2.6912 O   0  0  0  0  0  0  0  0  0  0  0  0
    3.5988   -0.1282    0.9896 C   0  0  0  0  0  0  0  0  0  0  0  0
    4.1664   -0.7065   -0.3057 C   0  0  0  0  0  0  0  0  0  0  0  0
    3.5653   -0.0935   -1.4448 C   0  0  0  0  0  0  0  0  0  0  0  0
    5.7112   -0.6747   -0.2729 C   0  0  0  0  0  0  0  0  0  0  0  0
   -2.0187   -1.2766   -0.8693 C   0  0  0  0  0  0  0  0  0  0  0  0
   -1.2223   -2.4380   -1.3661 C   0  0  0  0  0  0  0  0  0  0  0  0
   -0.7972   -3.4092   -0.5856 C   0  0  0  0  0  0  0  0  0  0  0  0
    4.3493    0.2936    2.0356 C   0  0  0  0  0  0  0  0  0  0  0  0
    4.0414    1.1009    3.1912 C   0  0  0  0  0  0  0  0  0  0  0  0
    2.8310    1.7375    3.5002 C   0  0  0  0  0  0  0  0  0  0  0  0
    5.0963    1.2713    4.0865 C   0  0  0  0  0  0  0  0  0  0  0  0
    2.6752    2.5304    4.6168 C   0  0  0  0  0  0  0  0  0  0  0  0
    4.9413    2.0617    5.1952 C   0  0  0  0  0  0  0  0  0  0  0  0
    3.7484    2.7281    5.4972 C   0  0  0  0  0  0  0  0  0  0  0  0
    3.6288    3.4548    6.6251 N   0  0  0  0  0  0  0  0  0  0  0  0
    6.2266   -2.1097   -0.4638 C   0  0  0  0  0  0  0  0  0  0  0  0
    6.1693    0.0867   -1.3992 O   0  0  0  0  0  0  0  0  0  0  0  0
    6.0238    2.1087    6.0213 F   0  0  0  0  0  0  0  0  0  0  0  0
    2.4524    4.2261    7.0142 C   0  0  0  0  0  0  0  0  0  0  0  0
    4.6015    3.4487    7.6907 C   0  0  0  0  0  0  0  0  0  0  0  0
    2.8015    4.8152    8.3996 C   0  0  0  0  0  0  0  0  0  0  0  0
    3.8339    3.8203    8.9479 C   0  0  0  0  0  0  0  0  0  0  0  0
  1  2  2  0
  1  4  1  0
  1  6  1  0
  2  3  1  0
  3  5  1  0
  4  5  2  0
  4  7  1  0
  5  9  1  0
  6 13  1  0
  7  8  2  0
  7 11  1  0
  9 10  1  0
  9 16  2  3
 10 11  1  0
 10 12  1  0
 12 24  1  0
 12 25  1  0
 13 14  1  0
 14 15  2  0
 16 17  1  0
 17 18  2  0
 17 19  1  0
 18 20  1  0
 19 21  2  0
 20 22  2  0
 21 22  1  0
 21 26  1  0
 22 23  1  0
 23 27  1  0
 23 28  1  0
 27 29  1  0
 28 30  1  0
 29 30  1  0
M  END

$$$$
