
     RDKit          3D

 19 20  0  0  0  0  0  0  0  0999 V2000
    0.0000    0.0000    0.0000 C   0  0  0  0  0  0  0  0  0  0  0  0
    0.0000    0.0000    1.3317 N   0  0  0  0  0  0  0  0  0  0  0  0
    1.1813    0.0000    1.9299 C   0  0  0  0  0  0  0  0  0  0  0  0
    1.1990   -0.0589   -0.6931 C   0  0  0  0  0  0  0  0  0  0  0  0
    2.4016   -0.1180   -0.0721 N   0  0  0  0  0  0  0  0  0  0  0  0
    2.3371   -0.1148    1.2504 C   0  0  0  0  0  0  0  0  0  0  0  0
    1.2545   -0.0086   -2.1590 C   0  0  0  0  0  0  0  0  0  0  0  0
    2.3826   -0.4551   -2.5649 N   0  0  0  0  0  0  0  0  0  0  0  0
    2.5002   -0.3807   -3.9441 O   0  0  0  0  0  0  0  0  0  0  0  0
    0.0923    0.4756   -2.8805 C   0  0  0  0  0  0  0  0  0  0  0  0
   -0.9024    1.0642   -2.1590 C   0  0  0  0  0  0  0  0  0  0  0  0
   -2.0834    1.5171   -2.7261 N   0  0  0  0  0  0  0  0  0  0  0  0
   -2.8346    2.0729   -1.8630 C   0  0  0  0  0  0  0  0  0  0  0  0
   -0.0970    0.3537   -4.3310 C   0  0  0  0  0  0  0  0  0  0  0  0
    0.7089   -0.1126   -5.1227 O   0  0  0  0  0  0  0  0  0  0  0  0
   -2.2994    2.1829   -0.1655 S   0  0  0  0  0  0  0  0  0  0  0  0
   -4.3362    2.7969   -2.2582 S   0  0  0  0  0  0  0  0  0  0  0  0
   -0.8899    1.2497   -0.6859 C   0  0  0  0  0  0  0  0  0  0  0  0
   -4.3950    2.5766   -4.0580 C   0  0  0  0  0  0  0  0  0  0  0  0
  1  2  2  0
  1  4  1  0
  2  3  1  0
  3  6  2  0
  4  5  2  0
  4  7  1  0
  5  6  1  0
  7  8  2  3
  7 10  1  0
  8  9  1  0
 10 11  2  3
 10 14  1  0
 11 12  1  0
 11 18  1  0
 12 13  2  0
 13 16  1  0
 13 17  1  0
 14 15  2  0
 16 18  1  0
 17 19  1  0
M  END

$$$$

     RDKit          3D

 31 33  0  0  0  0  0  0  0  0999 V2000
    0.0000    0.0000    0.0000 C   0  0  0  0  0  0  0  0  0  0  0  0
    0.0000    0.0000    1.4933 C   0  0  0  0  0  0  0  0  0  0  0  0
    1.1490    0.0000    2.2256 N   0  0  0  0  0  0  0  0  0  0  0  0
    1.1846    0.1167   -0.6139 N   0  0  0  0  0  0  0  0  0  0  0  0
    2.3051    0.0063    0.1116 C   0  0  0  0  0  0  0  0  0  0  0  0
    2.3041    0.0161    1.5298 C   0  0  0  0  0  0  0  0  0  0  0  0
    3.4096   -0.0819   -0.6679 N   0  0  0  0  0  0  0  0  0  0  0  0
    3.5423    0.1062    2.2487 C   0  0  0  0  0  0  0  0  0  0  0  0
    4.5477   -0.0538   -0.1005 C   0  0  0  0  0  0  0  0  0  0  0  0
    4.6979    0.0095    1.4181 C   0  0  0  0  0  0  0  0  0  0  0  0
    3.6811    0.2761    3.6255 C   0  0  0  0  0  0  0  0  0  0  0  0
    5.9464    0.0425    2.0902 C   0  0  0  0  0  0  0  0  0  0  0  0
    4.8805    0.3077    4.2713 C   0  0  0  0  0  0  0  0  0  0  0  0
    6.0902    0.2205    3.4735 C   0  0  0  0  0  0  0  0  0  0  0  0
    4.9687    0.5236    5.6058 F   0  0  0  0  0  0  0  0  0  0  0  0
    7.1470   -0.0898    1.4766 O   0  0  0  0  0  0  0  0  0  0  0  0
    7.3464    0.2870    3.9970 O   0  0  0  0  0  0  0  0  0  0  0  0
    7.3974   -0.8505    0.2962 C   0  0  0  0  0  0  0  0  0  0  0  0
   -1.0223    0.1007    2.1552 O   0  0  0  0  0  0  0  0  0  0  0  0
   -1.1585   -0.0569   -0.6697 N   0  0  0  0  0  0  0  0  0  0  0  0
    8.8767   -0.6292   -0.0152 C   0  0  0  0  0  0  0  0  0  0  0  0
    1.0108   -0.0573    3.6858 C   0  0  0  0  0  0  0  0  0  0  0  0
    7.6441    0.3111    5.3918 C   0  0  0  0  0  0  0  0  0  0  0  0
    2.2241   -0.5204    4.5071 C   0  0  0  0  0  0  0  0  0  0  0  0
   -2.4638   -0.1855   -0.0685 C   0  0  0  0  0  0  0  0  0  0  0  0
   -0.1129   -1.0992    3.9946 C   0  0  0  0  0  0  0  0  0  0  0  0
    0.0023   -2.2376    3.6066 O   0  0  0  0  0  0  0  0  0  0  0  0
   -1.2137   -0.0069   -2.1272 C   0  0  0  0  0  0  0  0  0  0  0  0
   -3.1928    1.1723    0.0470 C   0  0  0  0  0  0  0  0  0  0  0  0
   -2.8392    2.0888   -1.0324 N   0  0  0  0  0  0  0  0  0  0  0  0
    1.5472   -1.3492    5.6223 C   0  0  0  0  0  0  0  0  0  0  0  0
  1  2  1  0
  1  4  1  0
  1 20  1  0
  2  3  1  0
  2 19  2  0
  3  6  1  0
  3 22  1  0
  4  5  1  0
  5  6  1  0
  5  7  1  0
  6  8  1  0
  7  9  2  0
  8 10  2  0
  8 11  1  0
  9 10  1  0
 10 12  1  0
 11 13  2  0
 12 14  2  0
 12 16  1  0
 13 14  1  0
 13 15  1  0
 14 17  1  0
 16 18  1  0
 17 23  1  0
 18 21  1  0
 20 25  1  0
 20 28  1  0
 22 24  1  0
 22 26  1  0
 24 31  1  0
 25 29  1  0
 26 27  2  0
 29 30  1  0
M  END

$$$$

     RDKit          3D

 31 34  0  0  0  0  0  0  0  0999 V2000
    0.0000    0.0000    0.0000 C   0  0  0  0  0  0  0  0  0  0  0  0
    0.0000    0.0000    1.3317 C   0  0  0  0  0  0  0  0  0  0  0  0
    1.0756    0.0000    2.2061 N   0  0  0  0  0  0  0  0  0  0  0  0
    1.1990   -0.0589   -0.6931 N   0  0  0  0  0  0  0  0  0  0  0  0
    2.3235   -0.0037    0.0324 C   0  0  0  0  0  0  0  0  0  0  0  0
    2.2464   -0.1214    1.4194 C   0  0  0  0  0  0  0  0  0  0  0  0
    3.6257    0.1179   -0.3766 N   0  0  0  0  0  0  0  0  0  0  0  0
    3.5404   -0.0797    1.8441 N   0  0  0  0  0  0  0  0  0  0  0  0
    4.4005    0.0715    0.7719 C   0  0  0  0  0  0  0  0  0  0  0  0
    6.0168    0.2358    0.8629 S   0  0  0  0  0  0  0  0  0  0  0  0
    1.1320   -0.2674   -2.1109 C   0  0  0  0  0  0  0  0  0  0  0  0
    0.4647   -1.6138   -2.3869 C   0  0  0  0  0  0  0  0  0  0  0  0
    0.0014   -2.2869   -1.5064 O   0  0  0  0  0  0  0  0  0  0  0  0
    1.0209    0.1320    3.6009 C   0  0  0  0  0  0  0  0  0  0  0  0
    0.0117   -0.5392    4.2898 C   0  0  0  0  0  0  0  0  0  0  0  0
    1.9423    0.9577    4.2943 C   0  0  0  0  0  0  0  0  0  0  0  0
   -0.1129   -0.3981    5.6711 C   0  0  0  0  0  0  0  0  0  0  0  0
    1.8173    1.0966    5.6759 C   0  0  0  0  0  0  0  0  0  0  0  0
    0.8039    0.3642    6.3624 C   0  0  0  0  0  0  0  0  0  0  0  0
    4.1090    0.3531   -1.6891 C   0  0  0  0  0  0  0  0  0  0  0  0
    5.2331   -0.2703   -2.2081 C   0  0  0  0  0  0  0  0  0  0  0  0
    3.3541    1.1991   -2.4865 C   0  0  0  0  0  0  0  0  0  0  0  0
    5.6366   -0.0469   -3.5068 C   0  0  0  0  0  0  0  0  0  0  0  0
    3.7606    1.4195   -3.7933 C   0  0  0  0  0  0  0  0  0  0  0  0
    4.8596    0.8232   -4.2409 C   0  0  0  0  0  0  0  0  0  0  0  0
    0.4915   -1.9050   -3.6706 O   0  0  0  0  0  0  0  0  0  0  0  0
    0.7370    0.5222    8.0572 Cl  0  0  0  0  0  0  0  0  0  0  0  0
    2.8560    1.5943    3.5364 O   0  0  0  0  0  0  0  0  0  0  0  0
    2.9481    2.2845   -4.7137 C   0  0  0  0  0  0  0  0  0  0  0  0
   -0.0475   -3.1526   -4.0469 C   0  0  0  0  0  0  0  0  0  0  0  0
    2.9506    2.0420    6.5843 Cl  0  0  0  0  0  0  0  0  0  0  0  0
  1  2  2  0
  1  4  1  0
  2  3  1  0
  3  6  1  0
  3 14  1  0
  4  5  1  0
  4 11  1  0
  5  6  2  0
  5  7  1  0
  6  8  1  0
  7  9  1  0
  7 20  1  0
  8  9  2  0
  9 10  1  0
 11 12  1  0
 12 13  2  0
 12 26  1  0
 14 15  2  0
 14 16  1  0
 15 17  1  0
 16 18  2  0
 16 28  1  0
 17 19  2  0
 18 19  1  0
 18 31  1  0
 19 27  1  0
 20 21  2  0
 20 22  1  0
 21 23  1  0
 22 24  2  0
 23 25  2  0
 24 25  1  0
 24 29  1  0
 26 30  1  0
M  END

$$$$

     RDKit          3D

 30 33  0  0  0  0  0  0  0  0999 V2000
    0.0000    0.0000    0.0000 C   0  0  0  0  0  0  0  0  0  0  0  0
    0.0000    0.0000    1.3165 N   0  0  0  0  0  0  0  0  0  0  0  0
    1.2422    0.0000    1.8951 C   0  0  0  0  0  0  0  0  0  0  0  0
    1.0803   -0.0531   -0.7768 C   0  0  0  0  0  0  0  0  0  0  0  0
    2.3416   -0.1773   -0.1959 N   0  0  0  0  0  0  0  0  0  0  0  0
    2.3415   -0.1797    1.1056 C   0  0  0  0  0  0  0  0  0  0  0  0
    3.3405   -0.2254    2.0080 N   0  0  0  0  0  0  0  0  0  0  0  0
    2.9986   -0.1582    3.3415 C   0  0  0  0  0  0  0  0  0  0  0  0
    1.5997   -0.1101    3.2602 C   0  0  0  0  0  0  0  0  0  0  0  0
    0.9362   -0.1046   -2.2708 C   0  0  0  0  0  0  0  0  0  0  0  0
    1.4875   -0.9768   -2.9258 O   0  0  0  0  0  0  0  0  0  0  0  0
    0.1776    0.8543   -2.8174 N   0  0  0  0  0  0  0  0  0  0  0  0
    3.6775   -0.1198    4.4865 N   0  0  0  0  0  0  0  0  0  0  0  0
   -0.0893    0.8831   -4.2605 C   0  0  0  0  0  0  0  0  0  0  0  0
   -1.2059    0.0000    2.0936 C   0  0  0  0  0  0  0  0  0  0  0  0
   -1.3961    0.2145   -4.5345 C   0  0  0  0  0  0  0  0  0  0  0  0
   -1.5729   -0.9850   -5.2388 C   0  0  0  0  0  0  0  0  0  0  0  0
   -2.6575    0.6626   -4.1748 C   0  0  0  0  0  0  0  0  0  0  0  0
   -2.8697   -1.2879   -5.2322 N   0  0  0  0  0  0  0  0  0  0  0  0
   -3.5372   -0.2841   -4.5812 N   0  0  0  0  0  0  0  0  0  0  0  0
   -3.0819    1.8830   -3.4432 C   0  0  0  0  0  0  0  0  0  0  0  0
   -0.5697   -1.8334   -5.9303 C   0  0  0  0  0  0  0  0  0  0  0  0
   -0.4080    1.9997   -2.1280 C   0  0  0  0  0  0  0  0  0  0  0  0
    5.1197   -0.2214    4.3614 C   0  0  0  0  0  0  0  0  0  0  0  0
   -4.9537   -0.3044   -4.5134 C   0  0  0  0  0  0  0  0  0  0  0  0
   -5.6742   -0.2049   -5.7028 C   0  0  0  0  0  0  0  0  0  0  0  0
   -5.5828   -0.5737   -3.2989 C   0  0  0  0  0  0  0  0  0  0  0  0
   -7.0509   -0.2697   -5.6909 C   0  0  0  0  0  0  0  0  0  0  0  0
   -6.9599   -0.6313   -3.2922 C   0  0  0  0  0  0  0  0  0  0  0  0
   -7.6695   -0.4383   -4.4349 C   0  0  0  0  0  0  0  0  0  0  0  0
  1  2  1  0
  1  4  2  0
  2  3  1  0
  2 15  1  0
  3  6  1  0
  3  9  2  0
  4  5  1  0
  4 10  1  0
  5  6  2  0
  6  7  1  0
  7  8  2  0
  8  9  1  0
  8 13  1  0
 10 11  2  0
 10 12  1  0
 12 14  1  0
 12 23  1  0
 13 24  1  0
 14 16  1  0
 16 17  1  0
 16 18  2  0
 17 19  2  0
 17 22  1  0
 18 20  1  0
 18 21  1  0
 19 20  1  0
 20 25  1  0
 25 26  2  0
 25 27  1  0
 26 28  1  0
 27 29  2  0
 28 30  2  0
 29 30  1  0
M  END

$$$$

     RDKit          3D

 30 33  0  0  0  0  0  0  0  0999 V2000
    0.0000    0.0000    0.0000 C   0  0  0  0  0  0  0  0  0  0  0  0
    0.0000    0.0000    1.3317 C   0  0  0  0  0  0  0  0  0  0  0  0
    1.0756    0.0000    2.2061 N   0  0  0  0  0  0  0  0  0  0  0  0
    1.1990   -0.0589   -0.6931 N   0  0  0  0  0  0  0  0  0  0  0  0
    2.3235   -0.0037    0.0324 C   0  0  0  0  0  0  0  0  0  0  0  0
    2.2464   -0.1214    1.4194 C   0  0  0  0  0  0  0  0  0  0  0  0
    1.0178    0.2907    3.6351 C   0  0  0  0  0  0  0  0  0  0  0  0
    1.1528    0.1551   -2.1109 C   0  0  0  0  0  0  0  0  0  0  0  0
    1.0287    1.8081    3.9279 C   0  0  0  0  0  0  0  0  0  0  0  0
   -0.2802    2.3510    4.4757 C   0  0  0  0  0  0  0  0  0  0  0  0
    3.6380    0.0773   -0.6714 C   0  0  0  0  0  0  0  0  0  0  0  0
    1.4001    1.5934   -2.4275 C   0  0  0  0  0  0  0  0  0  0  0  0
    1.2846    2.7586   -1.7308 C   0  0  0  0  0  0  0  0  0  0  0  0
    1.7577    1.8680   -3.6968 O   0  0  0  0  0  0  0  0  0  0  0  0
    1.6166    3.8142   -2.5919 C   0  0  0  0  0  0  0  0  0  0  0  0
    1.8685    3.2255   -3.7365 C   0  0  0  0  0  0  0  0  0  0  0  0
    4.0468    1.5238   -0.9450 C   0  0  0  0  0  0  0  0  0  0  0  0
    3.6203   -0.2877    1.8560 C   0  0  0  0  0  0  0  0  0  0  0  0
    4.0966   -0.9466    2.9203 C   0  0  0  0  0  0  0  0  0  0  0  0
    2.2023   -0.6873   -2.6967 N   0  0  0  0  0  0  0  0  0  0  0  0
    3.3138   -1.7268    3.8736 C   0  0  0  0  0  0  0  0  0  0  0  0
    2.3025   -2.6248    3.4744 C   0  0  0  0  0  0  0  0  0  0  0  0
    3.6376   -1.5347    5.2159 C   0  0  0  0  0  0  0  0  0  0  0  0
    1.5115   -3.2363    4.4116 C   0  0  0  0  0  0  0  0  0  0  0  0
    2.8428   -2.1496    6.1592 C   0  0  0  0  0  0  0  0  0  0  0  0
    1.7451   -3.0155    5.7437 C   0  0  0  0  0  0  0  0  0  0  0  0
    2.9671   -2.0376    7.4959 N   0  0  0  0  0  0  0  0  0  0  0  0
    0.8988   -3.5707    7.1627 S   0  0  0  0  0  0  0  0  0  0  0  0
    2.0407   -2.6943    8.1165 C   0  0  0  0  0  0  0  0  0  0  0  0
    1.8817   -2.6971    9.8125 S   0  0  0  0  0  0  0  0  0  0  0  0
  1  2  2  0
  1  4  1  0
  2  3  1  0
  3  6  1  0
  3  7  1  0
  4  5  1  0
  4  8  1  0
  5  6  2  0
  5 11  1  0
  6 18  1  0
  7  9  1  0
  8 12  1  0
  8 20  1  0
  9 10  1  0
 11 17  1  0
 12 13  2  0
 12 14  1  0
 13 15  1  0
 14 16  1  0
 15 16  2  0
 18 19  2  3
 19 21  1  0
 21 22  2  0
 21 23  1  0
 22 24  1  0
 23 25  2  0
 24 26  2  0
 25 26  1  0
 25 27  1  0
 26 28  1  0
 27 29  2  0
 28 29  1  0
 29 30  1  0
M  END

$$$$

     RDKit          3D

 31 34  0  0  0  0  0  0  0  0999 V2000
    0.0000    0.0000    0.0000 C   0  0  0  0  0  0  0  0  0  0  0  0
    0.0000    0.0000    1.4264 N   0  0  0  0  0  0  0  0  0  0  0  0
    1.2712    0.0000    1.8721 C   0  0  0  0  0  0  0  0  0  0  0  0
    1.0742   -0.0528   -0.7724 C   0  0  0  0  0  0  0  0  0  0  0  0
    2.3576    0.0103   -0.2526 N   0  0  0  0  0  0  0  0  0  0  0  0
    2.4186   -0.0946    1.1046 C   0  0  0  0  0  0  0  0  0  0  0  0
    3.4566   -0.1312    1.9501 N   0  0  0  0  0  0  0  0  0  0  0  0
    2.9838   -0.2941    3.1843 C   0  0  0  0  0  0  0  0  0  0  0  0
    1.5576   -0.3168    3.1720 C   0  0  0  0  0  0  0  0  0  0  0  0
    3.7741   -0.3270    4.3910 C   0  0  0  0  0  0  0  0  0  0  0  0
    5.1527   -0.1748    4.2498 C   0  0  0  0  0  0  0  0  0  0  0  0
    3.3241   -0.4438    5.6969 C   0  0  0  0  0  0  0  0  0  0  0  0
    5.9528   -0.2488    5.3695 C   0  0  0  0  0  0  0  0  0  0  0  0
    4.1180   -0.5198    6.8113 C   0  0  0  0  0  0  0  0  0  0  0  0
    5.4657   -0.4686    6.6485 C   0  0  0  0  0  0  0  0  0  0  0  0
    3.5327    0.0914   -1.0425 C   0  0  0  0  0  0  0  0  0  0  0  0
    4.5044    1.0070   -0.6697 C   0  0  0  0  0  0  0  0  0  0  0  0
    3.7044   -0.7354   -2.1318 C   0  0  0  0  0  0  0  0  0  0  0  0
    5.6840    1.0869   -1.3780 C   0  0  0  0  0  0  0  0  0  0  0  0
    4.8336   -0.5873   -2.8940 C   0  0  0  0  0  0  0  0  0  0  0  0
    5.9592    0.2753   -2.4776 C   0  0  0  0  0  0  0  0  0  0  0  0
   -1.3425    0.0000   -0.6923 C   0  0  0  0  0  0  0  0  0  0  0  0
    7.0882    0.3519   -3.2365 N   0  0  0  0  0  0  0  0  0  0  0  0
    3.6307   -0.6830    8.0732 F   0  0  0  0  0  0  0  0  0  0  0  0
    7.2615   -0.4204   -4.4429 C   0  0  0  0  0  0  0  0  0  0  0  0
   -1.4741   -1.3360   -1.3846 C   0  0  0  0  0  0  0  0  0  0  0  0
   -1.3857   -2.4378   -0.8969 O   0  0  0  0  0  0  0  0  0  0  0  0
   -1.3987    1.0728   -1.7664 C   0  0  0  0  0  0  0  0  0  0  0  0
   -1.9525    0.8969   -2.8100 O   0  0  0  0  0  0  0  0  0  0  0  0
    8.1635    1.1952   -3.0040 C   0  0  0  0  0  0  0  0  0  0  0  0
    8.1642    1.9188   -2.0105 O   0  0  0  0  0  0  0  0  0  0  0  0
  1  2  1  0
  1  4  2  0
  1 22  1  0
  2  3  2  0
  3  6  1  0
  3  9  1  0
  4  5  1  0
  5  6  1  0
  5 16  1  0
  6  7  2  0
  7  8  1  0
  8  9  2  0
  8 10  1  0
 10 11  2  0
 10 12  1  0
 11 13  1  0
 12 14  2  0
 13 15  2  0
 14 15  1  0
 14 24  1  0
 16 17  2  0
 16 18  1  0
 17 19  1  0
 18 20  2  0
 19 21  2  0
 20 21  1  0
 21 23  1  0
 22 26  1  0
 22 28  1  0
 23 25  1  0
 23 30  1  0
 26 27  2  0
 28 29  2  0
 30 31  2  0
M  END

$$$$

     RDKit          3D

 27 29  0  0  0  0  0  0  0  0999 V2000
    0.0000    0.0000    0.0000 C   0  0  0  0  0  0  0  0  0  0  0  0
    0.0000    0.0000    1.3704 C   0  0  0  0  0  0  0  0  0  0  0  0
    1.1969    0.0000    2.1613 N   0  0  0  0  0  0  0  0  0  0  0  0
    1.1585    0.0000   -0.7465 N   0  0  0  0  0  0  0  0  0  0  0  0
    2.2908    0.0000   -0.0169 C   0  0  0  0  0  0  0  0  0  0  0  0
    2.2908    0.0000    1.4678 C   0  0  0  0  0  0  0  0  0  0  0  0
    3.5025    0.0516   -0.4893 N   0  0  0  0  0  0  0  0  0  0  0  0
    3.6039   -0.0538    1.8277 N   0  0  0  0  0  0  0  0  0  0  0  0
    4.2563   -0.0278    0.6336 C   0  0  0  0  0  0  0  0  0  0  0  0
    5.9093    0.0588    0.6130 S   0  0  0  0  0  0  0  0  0  0  0  0
    4.1022   -0.1307    3.1708 C   0  0  0  0  0  0  0  0  0  0  0  0
    3.8067    1.1562    3.9568 C   0  0  0  0  0  0  0  0  0  0  0  0
   -1.2770    0.0000    2.1932 C   0  0  0  0  0  0  0  0  0  0  0  0
    1.2100   -0.0515   -2.1711 C   0  0  0  0  0  0  0  0  0  0  0  0
    0.7115   -1.1596   -2.8381 C   0  0  0  0  0  0  0  0  0  0  0  0
    1.7157    1.0276   -2.8792 C   0  0  0  0  0  0  0  0  0  0  0  0
    0.6946   -1.2333   -4.2302 C   0  0  0  0  0  0  0  0  0  0  0  0
    1.6999    0.9522   -4.2553 C   0  0  0  0  0  0  0  0  0  0  0  0
    1.2079   -0.1278   -4.8902 C   0  0  0  0  0  0  0  0  0  0  0  0
   -1.2770    0.0000   -0.8229 C   0  0  0  0  0  0  0  0  0  0  0  0
   -1.2248    0.9288   -1.8612 O   0  0  0  0  0  0  0  0  0  0  0  0
    0.1014   -2.4197   -4.8973 C   0  0  0  0  0  0  0  0  0  0  0  0
   -2.1933   -0.9163    1.7981 F   0  0  0  0  0  0  0  0  0  0  0  0
    4.0066    0.8759    5.4364 C   0  0  0  0  0  0  0  0  0  0  0  0
   -1.2213    2.2647   -1.4352 C   0  0  0  0  0  0  0  0  0  0  0  0
   -1.9179    1.1991    2.0219 F   0  0  0  0  0  0  0  0  0  0  0  0
   -1.0414   -0.2356    3.4669 F   0  0  0  0  0  0  0  0  0  0  0  0
  1  2  2  0
  1  4  1  0
  1 20  1  0
  2  3  1  0
  2 13  1  0
  3  6  2  0
  4  5  1  0
  4 14  1  0
  5  6  1  0
  5  7  2  0
  6  8  1  0
  7  9  1  0
  8  9  1  0
  8 11  1  0
  9 10  1  0
 11 12  1  0
 12 24  1  0
 13 23  1  0
 13 26  1  0
 13 27  1  0
 14 15  2  0
 14 16  1  0
 15 17  1  0
 16 18  2  0
 17 19  2  0
 17 22  1  0
 18 19  1  0
 20 21  1  0
 21 25  1  0
M  END

$$$$

     RDKit          3D

 11 11  0  0  0  0  0  0  0  0999 V2000
    0.0000    0.0000    0.0000 C   0  0  0  0  0  0  0  0  0  0  0  0
    0.0000    0.0000    1.4102 N   0  0  0  0  0  0  0  0  0  0  0  0
    1.3006    0.0000    1.8661 C   0  0  0  0  0  0  0  0  0  0  0  0
    1.0619    0.0522   -0.7636 C   0  0  0  0  0  0  0  0  0  0  0  0
    2.3175    0.0522   -0.3197 N   0  0  0  0  0  0  0  0  0  0  0  0
    2.4569   -0.0675    1.0542 C   0  0  0  0  0  0  0  0  0  0  0  0
    1.7388    0.0694    3.5620 S   0  0  0  0  0  0  0  0  0  0  0  0
    3.4706    0.0560   -1.0890 N   0  0  0  0  0  0  0  0  0  0  0  0
    0.0854   -0.2080    4.3339 C   0  0  0  0  0  0  0  0  0  0  0  0
   -1.2391    0.0000    2.0491 C   0  0  0  0  0  0  0  0  0  0  0  0
   -2.2546    0.0000    1.3947 O   0  0  0  0  0  0  0  0  0  0  0  0
  1  2  1  0
  1  4  2  0
  2  3  1  0
  2 10  1  0
  3  6  2  0
  3  7  1  0
  4  5  1  0
  5  6  1  0
  5  8  1  0
  7  9  1  0
 10 11  2  0
M  END

$$$$

     RDKit          3D

 31 35  0  0  0  0  0  0  0  0999 V2000
    0.0000    0.0000    0.0000 C   0  0  0  0  0  0  0  0  0  0  0  0
    0.0000    0.0000    1.3862 C   0  0  0  0  0  0  0  0  0  0  0  0
    1.1281    0.0000    2.0794 N   0  0  0  0  0  0  0  0  0  0  0  0
    1.1323    0.0000   -0.7296 N   0  0  0  0  0  0  0  0  0  0  0  0
    2.2842    0.0000    0.0126 C   0  0  0  0  0  0  0  0  0  0  0  0
    2.2842    0.0000    1.3597 C   0  0  0  0  0  0  0  0  0  0  0  0
    1.0867    0.0456   -1.9928 O   0  0  0  0  0  0  0  0  0  0  0  0
    1.0755   -0.0526    3.5369 C   0  0  0  0  0  0  0  0  0  0  0  0
    1.8170   -1.2725    4.0035 C   0  0  0  0  0  0  0  0  0  0  0  0
    1.3240   -2.5592    3.7039 C   0  0  0  0  0  0  0  0  0  0  0  0
    2.9938   -1.0899    4.6816 C   0  0  0  0  0  0  0  0  0  0  0  0
    1.9916   -3.6998    4.0661 C   0  0  0  0  0  0  0  0  0  0  0  0
    3.7922   -2.2006    5.0243 C   0  0  0  0  0  0  0  0  0  0  0  0
    3.2317   -3.5553    4.7044 C   0  0  0  0  0  0  0  0  0  0  0  0
    5.0061   -2.0643    5.5736 N   0  0  0  0  0  0  0  0  0  0  0  0
    3.8660   -4.6895    4.9951 N   0  0  0  0  0  0  0  0  0  0  0  0
    5.7402   -3.1346    5.8357 C   0  0  0  0  0  0  0  0  0  0  0  0
    5.0454   -4.5055    5.5503 C   0  0  0  0  0  0  0  0  0  0  0  0
    5.6416   -5.7841    5.7607 C   0  0  0  0  0  0  0  0  0  0  0  0
    5.1483   -7.0792    5.7314 C   0  0  0  0  0  0  0  0  0  0  0  0
    7.3622   -5.8504    6.0893 S   0  0  0  0  0  0  0  0  0  0  0  0
    5.9950   -8.2099    5.9301 C   0  0  0  0  0  0  0  0  0  0  0  0
    7.1973   -7.5726    5.9882 C   0  0  0  0  0  0  0  0  0  0  0  0
    5.9681   -9.6072    6.0433 C   0  0  0  0  0  0  0  0  0  0  0  0
    8.3180   -8.2644    6.1239 N   0  0  0  0  0  0  0  0  0  0  0  0
    7.0526  -10.4703    6.1932 C   0  0  0  0  0  0  0  0  0  0  0  0
    8.0638   -9.5555    6.0807 C   0  0  0  0  0  0  0  0  0  0  0  0
    6.9666   -2.9478    6.3406 N   0  0  0  0  0  0  0  0  0  0  0  0
    3.8214   -7.1096    5.5016 N   0  0  0  0  0  0  0  0  0  0  0  0
    4.6048  -10.1713    5.9930 C   0  0  0  0  0  0  0  0  0  0  0  0
    4.5703  -11.3136    5.6012 O   0  0  0  0  0  0  0  0  0  0  0  0
  1  2  2  0
  1  4  1  0
  2  3  1  0
  3  6  1  0
  3  8  1  0
  4  5  1  0
  4  7  1  0
  5  6  2  0
  8  9  1  0
  9 10  1  0
  9 11  2  0
 10 12  2  0
 11 13  1  0
 12 14  1  0
 13 14  1  0
 13 15  1  0
 14 16  1  0
 15 17  2  0
 16 18  2  0
 17 18  1  0
 17 28  1  0
 18 19  1  0
 19 20  2  0
 19 21  1  0
 20 22  1  0
 20 29  1  0
 21 23  1  0
 22 23  2  0
 22 24  1  0
 23 25  1  0
 24 26  2  0
 24 30  1  0
 25 27  2  0
 26 27  1  0
 30 31  2  0
M  END

$$$$

     RDKit          3D

 31 35  0  0  0  0  0  0  0  0999 V2000
    0.0000    0.0000    0.0000 C   0  0  0  0  0  0  0  0  0  0  0  0
    0.0000    0.0000    1.4183 C   0  0  0  0  0  0  0  0  0  0  0  0
    1.1281    0.0000    2.1115 N   0  0  0  0  0  0  0  0  0  0  0  0
    1.2128   -0.0596   -0.7011 N   0  0  0  0  0  0  0  0  0  0  0  0
    2.3132   -0.0596    0.0892 C   0  0  0  0  0  0  0  0  0  0  0  0
    2.3129   -0.0659    1.4596 C   0  0  0  0  0  0  0  0  0  0  0  0
    3.6255   -0.0552   -0.2773 N   0  0  0  0  0  0  0  0  0  0  0  0
    3.5897   -0.1182    1.9545 N   0  0  0  0  0  0  0  0  0  0  0  0
    4.3929   -0.1114    0.8662 C   0  0  0  0  0  0  0  0  0  0  0  0
    5.5921   -0.1710    0.9030 O   0  0  0  0  0  0  0  0  0  0  0  0
    1.2588   -0.2724   -2.1108 C   0  0  0  0  0  0  0  0  0  0  0  0
    1.8977    0.6462   -2.9424 C   0  0  0  0  0  0  0  0  0  0  0  0
    0.7225   -1.4255   -2.5999 C   0  0  0  0  0  0  0  0  0  0  0  0
    2.0082    0.4613   -4.2799 C   0  0  0  0  0  0  0  0  0  0  0  0
    0.6994   -1.6560   -3.9827 C   0  0  0  0  0  0  0  0  0  0  0  0
    1.4682   -0.6921   -4.8853 C   0  0  0  0  0  0  0  0  0  0  0  0
    0.1169   -2.7971   -4.5323 C   0  0  0  0  0  0  0  0  0  0  0  0
    1.5140   -0.9040   -6.2787 C   0  0  0  0  0  0  0  0  0  0  0  0
    0.0749   -2.9557   -5.8928 C   0  0  0  0  0  0  0  0  0  0  0  0
    1.0223   -2.0566   -6.8139 C   0  0  0  0  0  0  0  0  0  0  0  0
   -1.1388    0.0000   -0.7338 N   0  0  0  0  0  0  0  0  0  0  0  0
   -1.5472    0.5455   -1.7994 C   0  0  0  0  0  0  0  0  0  0  0  0
    4.0865   -0.0880    3.2825 C   0  0  0  0  0  0  0  0  0  0  0  0
    5.0248   -0.9896    3.7602 C   0  0  0  0  0  0  0  0  0  0  0  0
    3.5615    0.8994    4.1016 C   0  0  0  0  0  0  0  0  0  0  0  0
    5.5147   -0.8905    5.0446 C   0  0  0  0  0  0  0  0  0  0  0  0
    4.1124    0.9210    5.3734 C   0  0  0  0  0  0  0  0  0  0  0  0
    5.0148    0.0889    5.8755 C   0  0  0  0  0  0  0  0  0  0  0  0
    3.5979    1.8340    6.2198 O   0  0  0  0  0  0  0  0  0  0  0  0
   -1.0094    1.6303   -2.4243 N   0  0  0  0  0  0  0  0  0  0  0  0
   -1.6020    1.9140   -3.7089 C   0  0  0  0  0  0  0  0  0  0  0  0
  1  2  2  0
  1  4  1  0
  1 21  1  0
  2  3  1  0
  3  6  2  0
  4  5  1  0
  4 11  1  0
  5  6  1  0
  5  7  2  0
  6  8  1  0
  7  9  1  0
  8  9  1  0
  8 23  1  0
  9 10  2  0
 11 12  1  0
 11 13  2  0
 12 14  2  0
 13 15  1  0
 14 16  1  0
 15 16  1  0
 15 17  1  0
 16 18  1  0
 17 19  2  0
 18 20  2  0
 19 20  1  0
 21 22  2  3
 22 30  1  0
 23 24  2  0
 23 25  1  0
 24 26  1  0
 25 27  2  0
 26 28  2  0
 27 28  1  0
 27 29  1  0
 30 31  1  0
M  END

$$$$

     RDKit          3D

 19 20  0  0  0  0  0  0  0  0999 V2000
    0.0000    0.0000    0.0000 C   0  0  0  0  0  0  0  0  0  0  0  0
    0.0000    0.0000    1.3393 C   0  0  0  0  0  0  0  0  0  0  0  0
    1.0859    0.0000    2.1365 N   0  0  0  0  0  0  0  0  0  0  0  0
    1.1853   -0.0582   -0.6852 N   0  0  0  0  0  0  0  0  0  0  0  0
    2.2365   -0.0582    0.0697 C   0  0  0  0  0  0  0  0  0  0  0  0
    2.2361   -0.0645    1.4322 C   0  0  0  0  0  0  0  0  0  0  0  0
    3.6195   -0.1212    1.9685 C   0  0  0  0  0  0  0  0  0  0  0  0
    4.0323    0.0001    3.1198 O   0  0  0  0  0  0  0  0  0  0  0  0
    3.6600   -0.0556   -0.4090 C   0  0  0  0  0  0  0  0  0  0  0  0
    4.4377   -0.2996    0.9232 N   0  0  0  0  0  0  0  0  0  0  0  0
    5.9122   -0.3435    1.0919 C   0  0  0  0  0  0  0  0  0  0  0  0
    6.4723    1.1158    1.1144 C   0  0  0  0  0  0  0  0  0  0  0  0
    6.4182   -1.1064   -0.1533 C   0  0  0  0  0  0  0  0  0  0  0  0
    7.3483   -0.7521   -0.8010 O   0  0  0  0  0  0  0  0  0  0  0  0
    7.9638    1.2968    1.3391 C   0  0  0  0  0  0  0  0  0  0  0  0
    6.3901   -1.1099    2.3351 C   0  0  0  0  0  0  0  0  0  0  0  0
    5.7379   -2.2323   -0.3608 O   0  0  0  0  0  0  0  0  0  0  0  0
    6.0595    1.8904   -0.1469 C   0  0  0  0  0  0  0  0  0  0  0  0
    5.9575   -2.5649    2.3945 C   0  0  0  0  0  0  0  0  0  0  0  0
  1  2  2  0
  1  4  1  0
  2  3  1  0
  3  6  2  0
  4  5  2  0
  5  6  1  0
  5  9  1  0
  6  7  1  0
  7  8  2  0
  7 10  1  0
  9 10  1  0
 10 11  1  0
 11 12  1  0
 11 13  1  0
 11 16  1  0
 12 15  1  0
 12 18  1  0
 13 14  2  0
 13 17  1  0
 16 19  1  0
M  END

$$$$

     RDKit          3D

 30 33  0  0  0  0  0  0  0  0999 V2000
    0.0000    0.0000    0.0000 C   0  0  0  0  0  0  0  0  0  0  0  0
    0.0000    0.0000    1.4021 C   0  0  0  0  0  0  0  0  0  0  0  0
    1.0436    0.0000    2.1422 N   0  0  0  0  0  0  0  0  0  0  0  0
    1.1922    0.0586   -0.6891 N   0  0  0  0  0  0  0  0  0  0  0  0
    2.2563    0.1634    0.0789 C   0  0  0  0  0  0  0  0  0  0  0  0
    2.1865    0.2104    1.4466 C   0  0  0  0  0  0  0  0  0  0  0  0
   -1.0396    0.0000   -0.8323 N   0  0  0  0  0  0  0  0  0  0  0  0
    3.5464    0.2710    2.0605 C   0  0  0  0  0  0  0  0  0  0  0  0
    3.9093    0.2750    3.2057 O   0  0  0  0  0  0  0  0  0  0  0  0
   -2.4009    0.2708   -0.4091 C   0  0  0  0  0  0  0  0  0  0  0  0
   -0.6768    0.0574   -2.2362 C   0  0  0  0  0  0  0  0  0  0  0  0
    0.8809    0.1565   -2.1495 C   0  0  0  0  0  0  0  0  0  0  0  0
   -2.5686    1.6086    0.3097 C   0  0  0  0  0  0  0  0  0  0  0  0
    1.5097   -0.8942   -2.9893 C   0  0  0  0  0  0  0  0  0  0  0  0
    2.2987   -0.6338   -4.0790 C   0  0  0  0  0  0  0  0  0  0  0  0
    1.5315   -2.3120   -2.8344 C   0  0  0  0  0  0  0  0  0  0  0  0
    2.7693   -1.8268   -4.6050 N   0  0  0  0  0  0  0  0  0  0  0  0
    0.9834   -3.1658   -1.8667 C   0  0  0  0  0  0  0  0  0  0  0  0
    2.3209   -2.8316   -3.8920 C   0  0  0  0  0  0  0  0  0  0  0  0
    1.1825   -4.5097   -2.0988 C   0  0  0  0  0  0  0  0  0  0  0  0
    2.5353   -4.1744   -4.1166 C   0  0  0  0  0  0  0  0  0  0  0  0
    1.8690   -4.9731   -3.2004 C   0  0  0  0  0  0  0  0  0  0  0  0
    2.6200    0.7092   -4.5512 C   0  0  0  0  0  0  0  0  0  0  0  0
    3.3530    0.9850   -5.4894 O   0  0  0  0  0  0  0  0  0  0  0  0
    3.6857   -1.9130   -5.7377 C   0  0  0  0  0  0  0  0  0  0  0  0
    3.0559   -2.6868   -6.8948 C   0  0  0  0  0  0  0  0  0  0  0  0
    4.9925   -2.6154   -5.3375 C   0  0  0  0  0  0  0  0  0  0  0  0
    4.0855   -0.5401   -6.3003 C   0  0  0  0  0  0  0  0  0  0  0  0
    1.1015   -0.1398    3.6192 C   0  0  0  0  0  0  0  0  0  0  0  0
    1.4869   -1.6178    3.8550 C   0  0  0  0  0  0  0  0  0  0  0  0
  1  2  2  0
  1  4  1  0
  1  7  1  0
  2  3  1  0
  3  6  1  0
  3 29  1  0
  4  5  1  0
  4 12  1  0
  5  6  2  0
  6  8  1  0
  7 10  1  0
  7 11  1  0
  8  9  2  0
 10 13  1  0
 11 12  1  0
 12 14  1  0
 14 15  2  0
 14 16  1  0
 15 17  1  0
 15 23  1  0
 16 18  1  0
 16 19  2  0
 17 19  1  0
 17 25  1  0
 18 20  2  0
 19 21  1  0
 20 22  1  0
 21 22  2  0
 23 24  2  0
 25 26  1  0
 25 27  1  0
 25 28  1  0
 29 30  1  0
M  END

$$$$

     RDKit          3D

 24 26  0  0  0  0  0  0  0  0999 V2000
    0.0000    0.0000    0.0000 C   0  0  0  0  0  0  0  0  0  0  0  0
    0.0000    0.0000    1.3941 C   0  0  0  0  0  0  0  0  0  0  0  0
    1.1217    0.0000    2.0834 N   0  0  0  0  0  0  0  0  0  0  0  0
    1.0379   -0.0510   -0.7463 N   0  0  0  0  0  0  0  0  0  0  0  0
    2.2017   -0.1082    0.0045 C   0  0  0  0  0  0  0  0  0  0  0  0
    2.2709   -0.0017    1.3302 C   0  0  0  0  0  0  0  0  0  0  0  0
    3.3396   -0.3017   -0.8886 C   0  0  0  0  0  0  0  0  0  0  0  0
    3.3292    0.0395   -2.2486 C   0  0  0  0  0  0  0  0  0  0  0  0
    4.5013   -0.7631   -0.2712 C   0  0  0  0  0  0  0  0  0  0  0  0
    4.3865   -0.0779   -3.1123 C   0  0  0  0  0  0  0  0  0  0  0  0
    5.5551   -0.8829   -1.1390 C   0  0  0  0  0  0  0  0  0  0  0  0
    5.5765   -0.5815   -2.5890 C   0  0  0  0  0  0  0  0  0  0  0  0
   -1.2421    0.1223   -0.8042 N   0  0  0  0  0  0  0  0  0  0  0  0
    6.6422   -0.7862   -3.3345 O   0  0  0  0  0  0  0  0  0  0  0  0
    6.7735   -0.4200   -4.6816 C   0  0  0  0  0  0  0  0  0  0  0  0
    6.9894   -1.4015   -5.6248 C   0  0  0  0  0  0  0  0  0  0  0  0
    6.6272    0.8998   -5.0504 C   0  0  0  0  0  0  0  0  0  0  0  0
    7.1759   -1.0812   -6.9687 C   0  0  0  0  0  0  0  0  0  0  0  0
    6.8923    1.2256   -6.3631 C   0  0  0  0  0  0  0  0  0  0  0  0
    7.1997    0.2694   -7.3443 C   0  0  0  0  0  0  0  0  0  0  0  0
    7.3500   -2.1658   -7.9423 C   0  0  0  0  0  0  0  0  0  0  0  0
    7.3418   -3.3580   -7.6432 O   0  0  0  0  0  0  0  0  0  0  0  0
    7.4675   -1.7434   -9.1917 O   0  0  0  0  0  0  0  0  0  0  0  0
    7.3260    0.6167   -8.6080 O   0  0  0  0  0  0  0  0  0  0  0  0
  1  2  2  0
  1  4  1  0
  1 13  1  0
  2  3  1  0
  3  6  2  0
  4  5  2  0
  5  6  1  0
  5  7  1  0
  7  8  1  0
  7  9  1  0
  8 10  2  0
  9 11  2  0
 10 12  1  0
 11 12  1  0
 12 14  1  0
 14 15  1  0
 15 16  2  0
 15 17  1  0
 16 18  1  0
 17 19  2  0
 18 20  2  0
 18 21  1  0
 19 20  1  0
 20 24  1  0
 21 22  2  0
 21 23  1  0
M  END

$$$$

     RDKit          3D

 31 34  0  0  0  0  0  0  0  0999 V2000
    0.0000    0.0000    0.0000 C   0  0  0  0  0  0  0  0  0  0  0  0
    0.0000    0.0000    1.4346 C   0  0  0  0  0  0  0  0  0  0  0  0
    1.1984    0.0000    2.0665 N   0  0  0  0  0  0  0  0  0  0  0  0
    1.0111    0.0996   -0.8135 N   0  0  0  0  0  0  0  0  0  0  0  0
    2.1897    0.1575   -0.1322 C   0  0  0  0  0  0  0  0  0  0  0  0
    2.2598    0.1682    1.2207 C   0  0  0  0  0  0  0  0  0  0  0  0
   -1.1258    0.0000    2.1601 N   0  0  0  0  0  0  0  0  0  0  0  0
   -1.3827   -0.1362   -0.7165 C   0  0  0  0  0  0  0  0  0  0  0  0
   -2.3845   -0.3355   -0.0583 O   0  0  0  0  0  0  0  0  0  0  0  0
   -2.3379    0.7265    1.7952 C   0  0  0  0  0  0  0  0  0  0  0  0
   -1.0687   -0.2874    3.5729 C   0  0  0  0  0  0  0  0  0  0  0  0
   -2.6711    1.8227    2.8060 C   0  0  0  0  0  0  0  0  0  0  0  0
   -1.4458    0.9420    4.3980 C   0  0  0  0  0  0  0  0  0  0  0  0
   -1.2538    0.0209   -2.0326 N   0  0  0  0  0  0  0  0  0  0  0  0
   -2.2360   -0.0822   -3.0165 C   0  0  0  0  0  0  0  0  0  0  0  0
   -3.5965   -0.0805   -3.0921 C   0  0  0  0  0  0  0  0  0  0  0  0
   -1.5893   -0.2012   -4.3288 C   0  0  0  0  0  0  0  0  0  0  0  0
   -4.0376   -0.2800   -4.4080 N   0  0  0  0  0  0  0  0  0  0  0  0
   -0.4373   -0.2249   -4.6919 O   0  0  0  0  0  0  0  0  0  0  0  0
   -2.7345   -0.3389   -5.0833 N   0  0  0  0  0  0  0  0  0  0  0  0
   -2.5993   -0.7498   -6.4170 C   0  0  0  0  0  0  0  0  0  0  0  0
   -1.7808   -0.1323   -7.3499 C   0  0  0  0  0  0  0  0  0  0  0  0
   -3.4440   -1.7729   -6.8450 C   0  0  0  0  0  0  0  0  0  0  0  0
   -1.5736   -0.5380   -8.6845 C   0  0  0  0  0  0  0  0  0  0  0  0
   -3.3098   -2.1071   -8.1672 C   0  0  0  0  0  0  0  0  0  0  0  0
   -2.3468   -1.6573   -9.0560 C   0  0  0  0  0  0  0  0  0  0  0  0
   -0.7150    0.0773   -9.5575 N   0  0  0  0  0  0  0  0  0  0  0  0
   -2.9745    1.2427    4.1865 C   0  0  0  0  0  0  0  0  0  0  0  0
   -2.3552   -2.1058  -10.4893 C   0  0  0  0  0  0  0  0  0  0  0  0
   -5.2242    0.3386   -4.9475 C   0  0  0  0  0  0  0  0  0  0  0  0
    0.2894   -0.5867  -10.3223 C   0  0  0  0  0  0  0  0  0  0  0  0
  1  2  1  0
  1  4  2  0
  1  8  1  0
  2  3  2  0
  2  7  1  0
  3  6  1  0
  4  5  1  0
  5  6  2  0
  7 10  1  0
  7 11  1  0
  8  9  2  0
  8 14  1  0
 10 12  1  0
 11 13  1  0
 12 28  1  0
 13 28  1  0
 14 15  1  0
 15 16  2  0
 15 17  1  0
 16 18  1  0
 17 19  2  0
 17 20  1  0
 18 20  1  0
 18 30  1  0
 20 21  1  0
 21 22  2  0
 21 23  1  0
 22 24  1  0
 23 25  2  0
 24 26  2  0
 24 27  1  0
 25 26  1  0
 26 29  1  0
 27 31  1  0
M  END

$$$$

     RDKit          3D

 30 33  0  0  0  0  0  0  0  0999 V2000
    0.0000    0.0000    0.0000 C   0  0  0  0  0  0  0  0  0  0  0  0
    0.0000    0.0000    1.3782 C   0  0  0  0  0  0  0  0  0  0  0  0
    1.1591    0.0000    2.0645 N   0  0  0  0  0  0  0  0  0  0  0  0
    1.1003    0.0000   -0.7091 N   0  0  0  0  0  0  0  0  0  0  0  0
    2.3044    0.0000   -0.0881 C   0  0  0  0  0  0  0  0  0  0  0  0
    2.3725    0.0599    1.3191 C   0  0  0  0  0  0  0  0  0  0  0  0
    3.4217    0.1759    1.9069 O   0  0  0  0  0  0  0  0  0  0  0  0
   -1.3196    0.0000    2.0587 C   0  0  0  0  0  0  0  0  0  0  0  0
   -1.2552    0.0000   -0.8089 N   0  0  0  0  0  0  0  0  0  0  0  0
    1.2106   -0.0515    3.4891 C   0  0  0  0  0  0  0  0  0  0  0  0
    1.6679    1.0671    4.2159 C   0  0  0  0  0  0  0  0  0  0  0  0
    0.8168   -1.1926    4.1541 C   0  0  0  0  0  0  0  0  0  0  0  0
    1.7797    1.0468    5.5659 C   0  0  0  0  0  0  0  0  0  0  0  0
    0.8951   -1.3056    5.5175 C   0  0  0  0  0  0  0  0  0  0  0  0
    1.4120   -0.1515    6.1762 C   0  0  0  0  0  0  0  0  0  0  0  0
    0.6526   -2.2729    6.4460 O   0  0  0  0  0  0  0  0  0  0  0  0
    1.3343   -0.5345    7.4653 N   0  0  0  0  0  0  0  0  0  0  0  0
    0.9643   -1.8188    7.6837 C   0  0  0  0  0  0  0  0  0  0  0  0
    3.4153   -0.0489   -0.8621 N   0  0  0  0  0  0  0  0  0  0  0  0
    0.7959   -2.5288    8.9768 C   0  0  0  0  0  0  0  0  0  0  0  0
   -0.6564   -2.5185    9.4789 C   0  0  0  0  0  0  0  0  0  0  0  0
   -1.5687   -3.4182    8.6467 C   0  0  0  0  0  0  0  0  0  0  0  0
    3.3197    0.3280   -2.2688 C   0  0  0  0  0  0  0  0  0  0  0  0
    3.6467    1.7428   -2.5348 C   0  0  0  0  0  0  0  0  0  0  0  0
    2.9801    2.8941   -2.2400 C   0  0  0  0  0  0  0  0  0  0  0  0
    4.8953    2.0907   -3.0031 O   0  0  0  0  0  0  0  0  0  0  0  0
    3.7467    3.9480   -2.6636 N   0  0  0  0  0  0  0  0  0  0  0  0
    4.8917    3.3970   -3.0883 C   0  0  0  0  0  0  0  0  0  0  0  0
   -3.0080   -3.3303    9.1519 C   0  0  0  0  0  0  0  0  0  0  0  0
    1.7033    3.1267   -1.5542 C   0  0  0  0  0  0  0  0  0  0  0  0
  1  2  2  0
  1  4  1  0
  1  9  1  0
  2  3  1  0
  2  8  1  0
  3  6  1  0
  3 10  1  0
  4  5  2  0
  5  6  1  0
  5 19  1  0
  6  7  2  0
 10 11  2  0
 10 12  1  0
 11 13  1  0
 12 14  2  0
 13 15  2  0
 14 15  1  0
 14 16  1  0
 15 17  1  0
 16 18  1  0
 17 18  2  0
 18 20  1  0
 19 23  1  0
 20 21  1  0
 21 22  1  0
 22 29  1  0
 23 24  1  0
 24 25  2  0
 24 26  1  0
 25 27  1  0
 25 30  1  0
 26 28  1  0
 27 28  2  0
M  END

$$$$

     RDKit          3D

 31 34  0  0  0  0  0  0  0  0999 V2000
    0.0000    0.0000    0.0000 C   0  0  0  0  0  0  0  0  0  0  0  0
    0.0000    0.0000    1.3470 N   0  0  0  0  0  0  0  0  0  0  0  0
    1.1847    0.0000    1.9717 C   0  0  0  0  0  0  0  0  0  0  0  0
    1.1719    0.0000   -0.7551 C   0  0  0  0  0  0  0  0  0  0  0  0
    2.3771    0.1187   -0.1306 N   0  0  0  0  0  0  0  0  0  0  0  0
    2.3771    0.1213    1.2164 C   0  0  0  0  0  0  0  0  0  0  0  0
    3.4628    0.1755    1.9987 N   0  0  0  0  0  0  0  0  0  0  0  0
    2.9363    0.1000    3.2195 C   0  0  0  0  0  0  0  0  0  0  0  0
    1.6282    0.0509    3.3598 N   0  0  0  0  0  0  0  0  0  0  0  0
    1.3739    0.0541   -2.1095 N   0  0  0  0  0  0  0  0  0  0  0  0
   -1.3502    0.0000   -0.6963 C   0  0  0  0  0  0  0  0  0  0  0  0
   -2.2931   -0.7738    0.0898 N   0  0  0  0  0  0  0  0  0  0  0  0
   -1.9515   -2.1928    0.0908 C   0  0  0  0  0  0  0  0  0  0  0  0
    0.5512   -0.6817   -3.0514 C   0  0  0  0  0  0  0  0  0  0  0  0
    3.4548    0.2422   -0.7810 O   0  0  0  0  0  0  0  0  0  0  0  0
    2.2365    1.0803   -2.6650 C   0  0  0  0  0  0  0  0  0  0  0  0
    1.4569    2.2875   -3.1840 C   0  0  0  0  0  0  0  0  0  0  0  0
   -2.8410   -2.9209    1.1105 C   0  0  0  0  0  0  0  0  0  0  0  0
   -4.2419   -2.7609    0.7676 N   0  0  0  0  0  0  0  0  0  0  0  0
   -4.8837   -3.7071   -0.0302 C   0  0  0  0  0  0  0  0  0  0  0  0
   -5.5779   -3.4291   -1.1879 C   0  0  0  0  0  0  0  0  0  0  0  0
   -4.8944   -5.0724    0.3827 C   0  0  0  0  0  0  0  0  0  0  0  0
   -6.2502   -4.4101   -1.9307 C   0  0  0  0  0  0  0  0  0  0  0  0
   -5.4194   -6.0965   -0.4600 C   0  0  0  0  0  0  0  0  0  0  0  0
   -4.3947   -5.5066    1.6187 C   0  0  0  0  0  0  0  0  0  0  0  0
   -6.2172   -5.6849   -1.6035 N   0  0  0  0  0  0  0  0  0  0  0  0
   -5.4057   -7.4565   -0.1191 C   0  0  0  0  0  0  0  0  0  0  0  0
   -4.3819   -6.8282    1.9499 C   0  0  0  0  0  0  0  0  0  0  0  0
   -4.9024   -7.7770    1.1233 C   0  0  0  0  0  0  0  0  0  0  0  0
    0.5476    1.8450   -4.1784 O   0  0  0  0  0  0  0  0  0  0  0  0
   -4.8037   -9.4376    1.5723 Cl  0  0  0  0  0  0  0  0  0  0  0  0
  1  2  1  0
  1  4  2  0
  1 11  1  0
  2  3  2  0
  3  6  1  0
  3  9  1  0
  4  5  1  0
  4 10  1  0
  5  6  1  0
  5 15  1  0
  6  7  2  0
  7  8  1  0
  8  9  2  0
 10 14  1  0
 10 16  1  0
 11 12  1  0
 12 13  1  0
 13 18  1  0
 16 17  1  0
 17 30  1  0
 18 19  1  0
 19 20  1  0
 20 21  2  0
 20 22  1  0
 21 23  1  0
 22 24  2  0
 22 25  1  0
 23 26  2  0
 24 26  1  0
 24 27  1  0
 25 28  2  0
 27 29  2  0
 28 29  1  0
 29 31  1  0
M  END

$$$$

     RDKit          3D

 31 32  0  0  0  0  0  0  0  0999 V2000
    0.0000    0.0000    0.0000 C   0  0  0  0  0  0  0  0  0  0  0  0
    0.0000    0.0000    1.3862 C   0  0  0  0  0  0  0  0  0  0  0  0
    1.1281    0.0000    2.0794 N   0  0  0  0  0  0  0  0  0  0  0  0
    1.1323    0.0000   -0.7296 N   0  0  0  0  0  0  0  0  0  0  0  0
    2.2842    0.0000    0.0126 C   0  0  0  0  0  0  0  0  0  0  0  0
    2.2842    0.0000    1.3597 C   0  0  0  0  0  0  0  0  0  0  0  0
    1.0867   -0.0456   -1.9928 O   0  0  0  0  0  0  0  0  0  0  0  0
    1.0715    0.1367    3.5230 C   0  0  0  0  0  0  0  0  0  0  0  0
    0.9940    1.6172    3.8923 C   0  0  0  0  0  0  0  0  0  0  0  0
    2.2525    2.3974    3.4817 C   0  0  0  0  0  0  0  0  0  0  0  0
    2.0107    3.8473    3.0046 C   0  0  0  0  0  0  0  0  0  0  0  0
    1.7132    3.9433    1.6045 N   0  0  0  0  0  0  0  0  0  0  0  0
    0.3827    3.6928    1.1301 C   0  0  0  0  0  0  0  0  0  0  0  0
    2.7456    3.8495    0.6009 C   0  0  0  0  0  0  0  0  0  0  0  0
    0.2814    2.3788    0.3398 C   0  0  0  0  0  0  0  0  0  0  0  0
    2.7666    2.5098   -0.1514 C   0  0  0  0  0  0  0  0  0  0  0  0
    1.2414    2.4443   -0.8470 C   0  0  0  0  0  0  0  0  0  0  0  0
   -1.1459    2.1350   -0.0901 C   0  0  0  0  0  0  0  0  0  0  0  0
   -1.8831    1.4002    0.5369 O   0  0  0  0  0  0  0  0  0  0  0  0
   -1.6109    2.9494   -1.2631 C   0  0  0  0  0  0  0  0  0  0  0  0
    0.9349    3.4743   -1.9084 C   0  0  0  0  0  0  0  0  0  0  0  0
   -0.0850    4.1089   -1.9251 O   0  0  0  0  0  0  0  0  0  0  0  0
   -1.8357    2.0427   -2.5054 C   0  0  0  0  0  0  0  0  0  0  0  0
   -0.5192    1.4795   -3.0130 C   0  0  0  0  0  0  0  0  0  0  0  0
   -2.6075    2.8841   -3.5862 C   0  0  0  0  0  0  0  0  0  0  0  0
   -2.0690    4.2754   -3.7596 C   0  0  0  0  0  0  0  0  0  0  0  0
   -1.0783    4.5670   -4.3865 O   0  0  0  0  0  0  0  0  0  0  0  0
   -4.0897    2.7048   -3.1871 C   0  0  0  0  0  0  0  0  0  0  0  0
   -2.7646    5.2217   -3.1646 O   0  0  0  0  0  0  0  0  0  0  0  0
   -2.7299    0.8522   -2.1624 C   0  0  0  0  0  0  0  0  0  0  0  0
   -4.2009    1.2806   -2.6450 C   0  0  0  0  0  0  0  0  0  0  0  0
  1  2  2  0
  1  4  1  0
  2  3  1  0
  3  6  1  0
  3  8  1  0
  4  5  1  0
  4  7  1  0
  5  6  2  0
  8  9  1  0
  9 10  1  0
 10 11  1  0
 11 12  1  0
 12 13  1  0
 12 14  1  0
 13 15  1  0
 14 16  1  0
 15 17  1  0
 15 18  1  0
 17 21  1  0
 18 19  2  0
 18 20  1  0
 20 23  1  0
 21 22  2  0
 23 24  1  0
 23 25  1  0
 23 30  1  0
 25 26  1  0
 25 28  1  0
 26 27  2  0
 26 29  1  0
 28 31  1  0
 30 31  1  0
M  END

$$$$

     RDKit          3D

 24 26  0  0  0  0  0  0  0  0999 V2000
    0.0000    0.0000    0.0000 C   0  0  0  0  0  0  0  0  0  0  0  0
    0.0000    0.0000    1.4346 C   0  0  0  0  0  0  0  0  0  0  0  0
    1.1905    0.0000    2.1133 N   0  0  0  0  0  0  0  0  0  0  0  0
    1.1712   -0.1153   -0.6069 N   0  0  0  0  0  0  0  0  0  0  0  0
    2.3231   -0.1719    0.0590 C   0  0  0  0  0  0  0  0  0  0  0  0
    2.3286   -0.1082    1.4839 C   0  0  0  0  0  0  0  0  0  0  0  0
    3.7578   -0.1145    2.3747 Cl  0  0  0  0  0  0  0  0  0  0  0  0
   -1.1258    0.0000    2.1601 N   0  0  0  0  0  0  0  0  0  0  0  0
   -1.3279   -0.0541    3.5144 C   0  0  0  0  0  0  0  0  0  0  0  0
   -0.3406   -0.1262    4.5073 C   0  0  0  0  0  0  0  0  0  0  0  0
   -2.5407   -0.1023    4.2323 C   0  0  0  0  0  0  0  0  0  0  0  0
   -1.1128   -0.2054    5.6082 N   0  0  0  0  0  0  0  0  0  0  0  0
   -2.4006   -0.2019    5.5528 N   0  0  0  0  0  0  0  0  0  0  0  0
   -0.5918   -0.2458    6.9443 C   0  0  0  0  0  0  0  0  0  0  0  0
   -3.8813   -0.1020    3.5941 C   0  0  0  0  0  0  0  0  0  0  0  0
   -4.8513   -0.4428    4.2155 O   0  0  0  0  0  0  0  0  0  0  0  0
   -3.9399    0.2884    2.3223 O   0  0  0  0  0  0  0  0  0  0  0  0
    1.1347   -0.1696    4.5390 C   0  0  0  0  0  0  0  0  0  0  0  0
    3.4409   -0.2363   -0.6619 N   0  0  0  0  0  0  0  0  0  0  0  0
   -1.1117    0.0546   -0.7994 N   0  0  0  0  0  0  0  0  0  0  0  0
   -1.0692   -0.2319   -2.1961 C   0  0  0  0  0  0  0  0  0  0  0  0
   -0.8800   -1.6771   -2.5580 C   0  0  0  0  0  0  0  0  0  0  0  0
   -2.0970   -1.1209   -2.8355 C   0  0  0  0  0  0  0  0  0  0  0  0
   -2.2452    0.8953   -0.4988 C   0  0  0  0  0  0  0  0  0  0  0  0
  1  2  1  0
  1  4  2  0
  1 20  1  0
  2  3  2  0
  2  8  1  0
  3  6  1  0
  4  5  1  0
  5  6  2  0
  5 19  1  0
  6  7  1  0
  8  9  1  0
  9 10  2  0
  9 11  1  0
 10 12  1  0
 10 18  1  0
 11 13  2  0
 11 15  1  0
 12 13  1  0
 12 14  1  0
 15 16  2  0
 15 17  1  0
 20 21  1  0
 20 24  1  0
 21 22  1  0
 21 23  1  0
 22 23  2  0
M  END

$$$$

     RDKit          3D

 20 21  0  0  0  0  0  0  0  0999 V2000
    0.0000    0.0000    0.0000 N   0  0  0  0  0  0  0  0  0  0  0  0
    0.0000    0.0000    1.3548 C   0  0  0  0  0  0  0  0  0  0  0  0
    1.1115    0.0000    2.1158 C   0  0  0  0  0  0  0  0  0  0  0  0
    1.2514   -0.0615   -0.5743 C   0  0  0  0  0  0  0  0  0  0  0  0
    2.3402   -0.1687    0.2115 C   0  0  0  0  0  0  0  0  0  0  0  0
    2.4038   -0.1065    1.5556 N   0  0  0  0  0  0  0  0  0  0  0  0
    3.5711   -0.2760    2.3430 C   0  0  0  0  0  0  0  0  0  0  0  0
    4.5088   -1.2236    1.9351 C   0  0  0  0  0  0  0  0  0  0  0  0
    3.8133    0.5045    3.4725 C   0  0  0  0  0  0  0  0  0  0  0  0
    5.6024   -1.3877    2.7577 C   0  0  0  0  0  0  0  0  0  0  0  0
    4.9072    0.3430    4.2952 C   0  0  0  0  0  0  0  0  0  0  0  0
    5.7717   -0.7178    3.9593 C   0  0  0  0  0  0  0  0  0  0  0  0
    7.1163   -1.0065    4.9646 Cl  0  0  0  0  0  0  0  0  0  0  0  0
    1.3075   -0.0106   -2.0571 C   0  0  0  0  0  0  0  0  0  0  0  0
   -1.2835   -0.1264   -0.6651 C   0  0  0  0  0  0  0  0  0  0  0  0
   -1.9859    1.1877   -0.8528 C   0  0  0  0  0  0  0  0  0  0  0  0
   -3.1382    1.4096   -1.4663 C   0  0  0  0  0  0  0  0  0  0  0  0
    5.1196    1.2873    5.6969 Cl  0  0  0  0  0  0  0  0  0  0  0  0
   -3.7874    2.9940   -1.6592 Cl  0  0  0  0  0  0  0  0  0  0  0  0
   -4.0255    0.0872   -2.1746 Cl  0  0  0  0  0  0  0  0  0  0  0  0
  1  2  1  0
  1  4  1  0
  1 15  1  0
  2  3  2  0
  3  6  1  0
  4  5  2  0
  4 14  1  0
  5  6  1  0
  6  7  1  0
  7  8  2  0
  7  9  1  0
  8 10  1  0
  9 11  2  0
 10 12  2  0
 11 12  1  0
 11 18  1  0
 12 13  1  0
 15 16  1  0
 16 17  2  3
 17 19  1  0
 17 20  1  0
M  END

$$$$

     RDKit          3D

 32 35  0  0  0  0  0  0  0  0999 V2000
    0.0000    0.0000    0.0000 C   0  0  0  0  0  0  0  0  0  0  0  0
    0.0000    0.0000    1.4021 C   0  0  0  0  0  0  0  0  0  0  0  0
    1.1622    0.0000    2.1429 N   0  0  0  0  0  0  0  0  0  0  0  0
    1.1786   -0.0579   -0.6813 N   0  0  0  0  0  0  0  0  0  0  0  0
    2.3095   -0.1135    0.0484 C   0  0  0  0  0  0  0  0  0  0  0  0
    2.3806    0.0082    1.4760 C   0  0  0  0  0  0  0  0  0  0  0  0
    3.6262   -0.2334   -0.3937 C   0  0  0  0  0  0  0  0  0  0  0  0
    3.7172   -0.0474    1.8392 C   0  0  0  0  0  0  0  0  0  0  0  0
    4.4007   -0.1892    0.7551 N   0  0  0  0  0  0  0  0  0  0  0  0
    4.0686   -0.3946   -1.7576 C   0  0  0  0  0  0  0  0  0  0  0  0
    3.2692   -0.4402   -2.6809 O   0  0  0  0  0  0  0  0  0  0  0  0
    5.3981   -0.5410   -1.9175 O   0  0  0  0  0  0  0  0  0  0  0  0
    4.3732    0.0842    3.1552 C   0  0  0  0  0  0  0  0  0  0  0  0
    5.8020   -0.2254    0.7242 C   0  0  0  0  0  0  0  0  0  0  0  0
    6.4990    0.8695    1.2757 C   0  0  0  0  0  0  0  0  0  0  0  0
    6.4756   -1.3471    0.2432 C   0  0  0  0  0  0  0  0  0  0  0  0
    7.8813    0.7665    1.2671 C   0  0  0  0  0  0  0  0  0  0  0  0
    7.8613   -1.3563    0.2783 C   0  0  0  0  0  0  0  0  0  0  0  0
    8.5861   -0.2977    0.7066 C   0  0  0  0  0  0  0  0  0  0  0  0
   -1.0803   -0.0531    2.1789 N   0  0  0  0  0  0  0  0  0  0  0  0
   10.0616   -0.3350    0.6766 C   0  0  0  0  0  0  0  0  0  0  0  0
   10.6650    0.5839    1.2105 O   0  0  0  0  0  0  0  0  0  0  0  0
    5.8886   -0.6525   -3.2523 C   0  0  0  0  0  0  0  0  0  0  0  0
   10.6229   -1.3788    0.0692 O   0  0  0  0  0  0  0  0  0  0  0  0
    5.7530    0.6586   -3.9898 C   0  0  0  0  0  0  0  0  0  0  0  0
    6.4794    1.7419   -3.5693 C   0  0  0  0  0  0  0  0  0  0  0  0
    4.8707    0.8066   -5.0800 C   0  0  0  0  0  0  0  0  0  0  0  0
    6.3483    2.9992   -4.1942 C   0  0  0  0  0  0  0  0  0  0  0  0
    4.6793    1.9812   -5.7434 C   0  0  0  0  0  0  0  0  0  0  0  0
    7.1144    4.1353   -3.8284 C   0  0  0  0  0  0  0  0  0  0  0  0
    5.4603    3.1949   -5.2827 C   0  0  0  0  0  0  0  0  0  0  0  0
    8.0140    3.8982   -2.7901 C   0  0  0  0  0  0  0  0  0  0  0  0
  1  2  1  0
  1  4  2  0
  2  3  2  0
  2 20  1  0
  3  6  1  0
  4  5  1  0
  5  6  1  0
  5  7  2  0
  6  8  2  0
  7  9  1  0
  7 10  1  0
  8  9  1  0
  8 13  1  0
  9 14  1  0
 10 11  2  0
 10 12  1  0
 12 23  1  0
 14 15  2  0
 14 16  1  0
 15 17  1  0
 16 18  2  0
 17 19  2  0
 18 19  1  0
 19 21  1  0
 21 22  2  0
 21 24  1  0
 23 25  1  0
 25 26  2  0
 25 27  1  0
 26 28  1  0
 27 29  2  0
 28 30  1  0
 28 31  1  0
 29 31  1  0
 30 32  1  0
M  END

$$$$

     RDKit          3D

 31 32  0  0  0  0  0  0  0  0999 V2000
    0.0000    0.0000    0.0000 N   0  0  0  0  0  0  0  0  0  0  0  0
    0.0000    0.0000    1.3625 C   0  0  0  0  0  0  0  0  0  0  0  0
    1.1765    0.0000    2.1400 C   0  0  0  0  0  0  0  0  0  0  0  0
    1.2715    0.1252   -0.5168 C   0  0  0  0  0  0  0  0  0  0  0  0
    2.4760    0.0661    0.3493 C   0  0  0  0  0  0  0  0  0  0  0  0
    2.2892    0.0555    1.6832 N   0  0  0  0  0  0  0  0  0  0  0  0
   -1.1908   -0.0585   -0.8562 C   0  0  0  0  0  0  0  0  0  0  0  0
    1.4590    0.2791   -1.6864 O   0  0  0  0  0  0  0  0  0  0  0  0
   -2.4048   -0.1781    0.0198 C   0  0  0  0  0  0  0  0  0  0  0  0
   -3.2922    0.7831    0.0664 C   0  0  0  0  0  0  0  0  0  0  0  0
    3.7095    0.0570   -0.1108 N   0  0  0  0  0  0  0  0  0  0  0  0
    5.0591   -0.0497    0.4116 C   0  0  0  0  0  0  0  0  0  0  0  0
   -1.2490   -1.2430   -1.8057 C   0  0  0  0  0  0  0  0  0  0  0  0
   -0.3132   -2.0699   -1.6051 N   0  0  0  0  0  0  0  0  0  0  0  0
   -0.1600   -3.1038   -2.4792 O   0  0  0  0  0  0  0  0  0  0  0  0
    6.0385   -0.5778   -0.6354 C   0  0  0  0  0  0  0  0  0  0  0  0
    5.9755    0.3021   -1.8936 C   0  0  0  0  0  0  0  0  0  0  0  0
   -2.3147   -1.3513   -2.8460 C   0  0  0  0  0  0  0  0  0  0  0  0
    5.4212    1.3385    0.9863 C   0  0  0  0  0  0  0  0  0  0  0  0
    4.4053    1.8684    1.9705 C   0  0  0  0  0  0  0  0  0  0  0  0
    3.7257    2.8288    1.8087 O   0  0  0  0  0  0  0  0  0  0  0  0
    4.3215    1.0729    3.0447 O   0  0  0  0  0  0  0  0  0  0  0  0
    0.3034   -2.7119   -3.7791 C   0  0  0  0  0  0  0  0  0  0  0  0
    1.3846   -1.6881   -3.5252 C   0  0  0  0  0  0  0  0  0  0  0  0
    1.0855   -0.3269   -3.7401 C   0  0  0  0  0  0  0  0  0  0  0  0
    2.6177   -2.0913   -3.0148 C   0  0  0  0  0  0  0  0  0  0  0  0
    2.0082    0.5760   -3.2352 C   0  0  0  0  0  0  0  0  0  0  0  0
    3.5562   -1.1809   -2.5790 C   0  0  0  0  0  0  0  0  0  0  0  0
    3.2051    0.2128   -2.6016 C   0  0  0  0  0  0  0  0  0  0  0  0
    4.0447    1.1201   -2.0862 O   0  0  0  0  0  0  0  0  0  0  0  0
    0.0001    0.0834   -4.3620 O   0  0  0  0  0  0  0  0  0  0  0  0
  1  2  1  0
  1  4  1  0
  1  7  1  0
  2  3  1  0
  3  6  2  0
  4  5  1  0
  4  8  2  0
  5  6  1  0
  5 11  2  3
  7  9  1  0
  7 13  1  0
  9 10  2  0
 11 12  1  0
 12 16  1  0
 12 19  1  0
 13 14  2  3
 13 18  1  0
 14 15  1  0
 15 23  1  0
 16 17  1  0
 19 20  1  0
 20 21  2  0
 20 22  1  0
 23 24  1  0
 24 25  2  0
 24 26  1  0
 25 27  1  0
 25 31  1  0
 26 28  2  0
 27 29  2  0
 28 29  1  0
 29 30  1  0
M  END

$$$$

     RDKit          3D

 30 32  0  0  0  0  0  0  0  0999 V2000
    0.0000    0.0000    0.0000 C   0  0  0  0  0  0  0  0  0  0  0  0
    0.0000    0.0000    1.3165 C   0  0  0  0  0  0  0  0  0  0  0  0
    1.1878    0.0000    2.0464 N   0  0  0  0  0  0  0  0  0  0  0  0
    1.1181   -0.0549   -0.8040 N   0  0  0  0  0  0  0  0  0  0  0  0
    2.2648   -0.0549   -0.1419 C   0  0  0  0  0  0  0  0  0  0  0  0
    2.2671    0.0521    1.2322 C   0  0  0  0  0  0  0  0  0  0  0  0
    3.4918    0.1831    1.7581 N   0  0  0  0  0  0  0  0  0  0  0  0
    1.0746    0.2382   -2.2330 C   0  0  0  0  0  0  0  0  0  0  0  0
    1.2334    0.0456    3.3096 O   0  0  0  0  0  0  0  0  0  0  0  0
    0.6702    1.7069   -2.3502 C   0  0  0  0  0  0  0  0  0  0  0  0
   -0.5259    2.0379   -2.9497 C   0  0  0  0  0  0  0  0  0  0  0  0
    1.5152    2.6902   -1.8162 C   0  0  0  0  0  0  0  0  0  0  0  0
   -0.8710    3.3716   -2.9885 C   0  0  0  0  0  0  0  0  0  0  0  0
    1.1625    4.0466   -1.8552 C   0  0  0  0  0  0  0  0  0  0  0  0
   -0.1063    4.4152   -2.4692 C   0  0  0  0  0  0  0  0  0  0  0  0
    2.3102    0.0741   -2.8926 O   0  0  0  0  0  0  0  0  0  0  0  0
    2.8807    1.2362   -3.4517 C   0  0  0  0  0  0  0  0  0  0  0  0
    2.0396    4.9015   -1.2582 O   0  0  0  0  0  0  0  0  0  0  0  0
    0.7164   -1.1545    3.9213 C   0  0  0  0  0  0  0  0  0  0  0  0
   -0.4264    5.7313   -2.4410 O   0  0  0  0  0  0  0  0  0  0  0  0
    2.0730    6.2568   -1.6162 C   0  0  0  0  0  0  0  0  0  0  0  0
   -1.5788    6.1431   -3.1578 C   0  0  0  0  0  0  0  0  0  0  0  0
   -1.3195    6.2387   -4.6783 C   0  0  0  0  0  0  0  0  0  0  0  0
    1.7453   -2.2349    3.8609 C   0  0  0  0  0  0  0  0  0  0  0  0
    2.7431   -2.4819    4.7554 C   0  0  0  0  0  0  0  0  0  0  0  0
    1.8168   -3.2436    2.4535 S   0  0  0  0  0  0  0  0  0  0  0  0
    3.5782   -3.5504    4.3689 C   0  0  0  0  0  0  0  0  0  0  0  0
    3.1511   -4.0462    3.1200 C   0  0  0  0  0  0  0  0  0  0  0  0
   -1.0162    7.5455   -5.1129 O   0  0  0  0  0  0  0  0  0  0  0  0
    0.2464    7.9630   -4.6941 C   0  0  0  0  0  0  0  0  0  0  0  0
  1  2  2  0
  1  4  1  0
  2  3  1  0
  3  6  1  0
  3  9  1  0
  4  5  1  0
  4  8  1  0
  5  6  2  0
  6  7  1  0
  8 10  1  0
  8 16  1  0
  9 19  1  0
 10 11  2  0
 10 12  1  0
 11 13  1  0
 12 14  2  0
 13 15  2  0
 14 15  1  0
 14 18  1  0
 15 20  1  0
 16 17  1  0
 18 21  1  0
 19 24  1  0
 20 22  1  0
 22 23  1  0
 23 29  1  0
 24 25  2  0
 24 26  1  0
 25 27  1  0
 26 28  1  0
 27 28  1  0
 29 30  1  0
M  END

$$$$

     RDKit          3D

 26 28  0  0  0  0  0  0  0  0999 V2000
    0.0000    0.0000    0.0000 C   0  0  0  0  0  0  0  0  0  0  0  0
    0.0000    0.0000    1.3165 N   0  0  0  0  0  0  0  0  0  0  0  0
    1.2712    0.0000    1.7622 C   0  0  0  0  0  0  0  0  0  0  0  0
    1.0945    0.0000   -0.8763 C   0  0  0  0  0  0  0  0  0  0  0  0
    2.2805    0.0000   -0.3966 N   0  0  0  0  0  0  0  0  0  0  0  0
    2.4219    0.0000    0.9744 C   0  0  0  0  0  0  0  0  0  0  0  0
    3.5609   -0.0561    1.8176 C   0  0  0  0  0  0  0  0  0  0  0  0
    3.3561   -0.0916    3.1563 C   0  0  0  0  0  0  0  0  0  0  0  0
    1.6156    0.0122    3.4177 S   0  0  0  0  0  0  0  0  0  0  0  0
    4.2391   -0.0929    4.3711 C   0  0  0  0  0  0  0  0  0  0  0  0
   -1.2250    0.0000   -0.6317 O   0  0  0  0  0  0  0  0  0  0  0  0
   -1.4224    0.0529   -1.9553 C   0  0  0  0  0  0  0  0  0  0  0  0
   -0.5018    0.1077   -2.7465 O   0  0  0  0  0  0  0  0  0  0  0  0
    5.6784   -0.0407    3.8881 C   0  0  0  0  0  0  0  0  0  0  0  0
   -2.8214    0.0922   -2.2707 C   0  0  0  0  0  0  0  0  0  0  0  0
   -3.3597    0.0952   -3.5394 C   0  0  0  0  0  0  0  0  0  0  0  0
   -4.0130    0.0681   -0.9853 S   0  0  0  0  0  0  0  0  0  0  0  0
   -4.7569    0.0836   -3.4223 C   0  0  0  0  0  0  0  0  0  0  0  0
   -5.2395    0.0711   -2.2236 C   0  0  0  0  0  0  0  0  0  0  0  0
   -6.5437    0.0024   -1.8084 N   0  0  0  0  0  0  0  0  0  0  0  0
    4.0790   -1.3636    5.2201 C   0  0  0  0  0  0  0  0  0  0  0  0
   -7.6729   -0.0647   -2.5679 C   0  0  0  0  0  0  0  0  0  0  0  0
   -8.7928   -0.1665   -2.1652 O   0  0  0  0  0  0  0  0  0  0  0  0
    4.0058    1.1350    5.2802 C   0  0  0  0  0  0  0  0  0  0  0  0
   -7.3207   -0.0542   -3.8681 O   0  0  0  0  0  0  0  0  0  0  0  0
   -8.4124   -0.0651   -4.7606 C   0  0  0  0  0  0  0  0  0  0  0  0
  1  2  2  0
  1  4  1  0
  1 11  1  0
  2  3  1  0
  3  6  2  0
  3  9  1  0
  4  5  2  0
  5  6  1  0
  6  7  1  0
  7  8  2  0
  8  9  1  0
  8 10  1  0
 10 14  1  0
 10 21  1  0
 10 24  1  0
 11 12  1  0
 12 13  2  0
 12 15  1  0
 15 16  2  0
 15 17  1  0
 16 18  1  0
 17 19  1  0
 18 19  2  0
 19 20  1  0
 20 22  1  0
 22 23  2  0
 22 25  1  0
 25 26  1  0
M  END

$$$$

     RDKit          3D

 30 32  0  0  0  0  0  0  0  0999 V2000
    0.0000    0.0000    0.0000 N   0  0  0  0  0  0  0  0  0  0  0  0
    0.0000    0.0000    1.2721 C   0  0  0  0  0  0  0  0  0  0  0  0
    1.2463    0.0000    2.1254 C   0  0  0  0  0  0  0  0  0  0  0  0
    1.1943    0.1772   -0.6971 C   0  0  0  0  0  0  0  0  0  0  0  0
    2.3919    0.2360    0.0756 C   0  0  0  0  0  0  0  0  0  0  0  0
    2.5173    0.2035    1.3484 N   0  0  0  0  0  0  0  0  0  0  0  0
   -1.3121    0.0000    1.9487 C   0  0  0  0  0  0  0  0  0  0  0  0
   -1.5973   -0.6886    3.2625 C   0  0  0  0  0  0  0  0  0  0  0  0
    1.1986   -0.1781    3.3194 O   0  0  0  0  0  0  0  0  0  0  0  0
    1.2273    0.3088   -2.0218 N   0  0  0  0  0  0  0  0  0  0  0  0
    0.1213    0.0300   -2.9055 C   0  0  0  0  0  0  0  0  0  0  0  0
    0.0049   -1.4630   -3.2498 C   0  0  0  0  0  0  0  0  0  0  0  0
   -1.5446    0.7864    3.2305 C   0  0  0  0  0  0  0  0  0  0  0  0
    1.2350   -1.9560   -4.0103 C   0  0  0  0  0  0  0  0  0  0  0  0
    1.1439   -3.4322   -4.4270 C   0  0  0  0  0  0  0  0  0  0  0  0
   -2.8168    1.5293    3.4148 C   0  0  0  0  0  0  0  0  0  0  0  0
   -4.0283    1.4445    2.7798 C   0  0  0  0  0  0  0  0  0  0  0  0
   -2.5792    2.5336    4.3639 C   0  0  0  0  0  0  0  0  0  0  0  0
   -5.0217    2.3429    3.1666 C   0  0  0  0  0  0  0  0  0  0  0  0
   -3.5601    3.4450    4.7225 C   0  0  0  0  0  0  0  0  0  0  0  0
   -4.7580    3.2732    4.1598 C   0  0  0  0  0  0  0  0  0  0  0  0
    1.1684   -4.3797   -3.2730 C   0  0  0  0  0  0  0  0  0  0  0  0
    2.1849   -4.9669   -2.7831 C   0  0  0  0  0  0  0  0  0  0  0  0
   -3.2701    4.4740    5.7895 C   0  0  0  0  0  0  0  0  0  0  0  0
   -2.8188    3.8435    6.8910 F   0  0  0  0  0  0  0  0  0  0  0  0
    2.0612   -5.9458   -1.6508 C   0  0  0  0  0  0  0  0  0  0  0  0
   -1.2893    2.4747    4.8458 N   0  0  0  0  0  0  0  0  0  0  0  0
    3.5997   -4.8306   -3.2682 C   0  0  0  0  0  0  0  0  0  0  0  0
   -2.3720    5.3616    5.3428 F   0  0  0  0  0  0  0  0  0  0  0  0
   -4.3326    5.1856    6.1329 F   0  0  0  0  0  0  0  0  0  0  0  0
  1  2  2  0
  1  4  1  0
  2  3  1  0
  2  7  1  0
  3  6  1  0
  3  9  2  0
  4  5  1  0
  4 10  1  0
  5  6  2  0
  7  8  1  0
  7 13  1  0
  8 13  1  0
 10 11  1  0
 11 12  1  0
 12 14  1  0
 13 16  1  0
 14 15  1  0
 15 22  1  0
 16 17  2  0
 16 18  1  0
 17 19  1  0
 18 20  2  0
 18 27  1  0
 19 21  2  0
 20 21  1  0
 20 24  1  0
 22 23  2  3
 23 26  1  0
 23 28  1  0
 24 25  1  0
 24 29  1  0
 24 30  1  0
M  END

$$$$

     RDKit          3D

 31 34  0  0  0  0  0  0  0  0999 V2000
    0.0000    0.0000    0.0000 C   0  0  0  0  0  0  0  0  0  0  0  0
    0.0000    0.0000    1.3782 N   0  0  0  0  0  0  0  0  0  0  0  0
    1.2678    0.0000    1.9187 C   0  0  0  0  0  0  0  0  0  0  0  0
    1.1652    0.0000   -0.7508 C   0  0  0  0  0  0  0  0  0  0  0  0
    2.3537    0.0584   -0.2054 N   0  0  0  0  0  0  0  0  0  0  0  0
    2.4809    0.1210    1.1187 C   0  0  0  0  0  0  0  0  0  0  0  0
    3.5159    0.2413    1.9602 N   0  0  0  0  0  0  0  0  0  0  0  0
    3.1741    0.2102    3.2628 N   0  0  0  0  0  0  0  0  0  0  0  0
    1.8703    0.1142    3.3285 C   0  0  0  0  0  0  0  0  0  0  0  0
    4.8869    0.3397    1.5216 C   0  0  0  0  0  0  0  0  0  0  0  0
    5.4064   -0.9979    0.9719 C   0  0  0  0  0  0  0  0  0  0  0  0
    6.3354   -1.5809    1.5422 O   0  0  0  0  0  0  0  0  0  0  0  0
    4.7320   -1.3797   -0.1205 N   0  0  0  0  0  0  0  0  0  0  0  0
    4.7534   -2.5034   -0.9588 C   0  0  0  0  0  0  0  0  0  0  0  0
    5.5851   -3.6122   -0.9431 C   0  0  0  0  0  0  0  0  0  0  0  0
    3.7578   -2.4190   -1.9768 C   0  0  0  0  0  0  0  0  0  0  0  0
    5.5409   -4.6201   -1.8473 N   0  0  0  0  0  0  0  0  0  0  0  0
    3.6440   -3.5055   -2.8429 N   0  0  0  0  0  0  0  0  0  0  0  0
    2.9701   -1.4967   -2.1260 O   0  0  0  0  0  0  0  0  0  0  0  0
    4.6245   -4.5248   -2.7243 C   0  0  0  0  0  0  0  0  0  0  0  0
    5.1220    1.4070    0.4789 C   0  0  0  0  0  0  0  0  0  0  0  0
    4.5596    2.6660    0.7332 C   0  0  0  0  0  0  0  0  0  0  0  0
    5.7141    1.1775   -0.7443 C   0  0  0  0  0  0  0  0  0  0  0  0
    4.7086    3.6743   -0.2296 C   0  0  0  0  0  0  0  0  0  0  0  0
    5.8623    2.1688   -1.6788 C   0  0  0  0  0  0  0  0  0  0  0  0
    5.4273    3.4691   -1.3596 C   0  0  0  0  0  0  0  0  0  0  0  0
    2.7107   -3.6318   -3.8492 N   0  0  0  0  0  0  0  0  0  0  0  0
    1.5131   -3.3543   -3.6208 C   0  0  0  0  0  0  0  0  0  0  0  0
    6.7379    1.8074   -3.3000 Br  0  0  0  0  0  0  0  0  0  0  0  0
    0.8426   -2.9486   -2.3797 C   0  0  0  0  0  0  0  0  0  0  0  0
    1.0863   -3.6357   -1.2101 C   0  0  0  0  0  0  0  0  0  0  0  0
  1  2  2  0
  1  4  1  0
  2  3  1  0
  3  6  2  0
  3  9  1  0
  4  5  2  0
  5  6  1  0
  6  7  1  0
  7  8  1  0
  7 10  1  0
  8  9  2  0
 10 11  1  0
 10 21  1  0
 11 12  2  0
 11 13  1  0
 13 14  1  0
 14 15  2  0
 14 16  1  0
 15 17  1  0
 16 18  1  0
 16 19  2  0
 17 20  2  0
 18 20  1  0
 18 27  1  0
 21 22  2  0
 21 23  1  0
 22 24  1  0
 23 25  2  0
 24 26  2  0
 25 26  1  0
 25 29  1  0
 27 28  2  3
 28 30  1  0
 30 31  2  0
M  END

$$$$

     RDKit          3D

 25 26  0  0  0  0  0  0  0  0999 V2000
    0.0000    0.0000    0.0000 C   0  0  0  0  0  0  0  0  0  0  0  0
    0.0000    0.0000    1.4102 N   0  0  0  0  0  0  0  0  0  0  0  0
    1.3006    0.0000    1.8661 C   0  0  0  0  0  0  0  0  0  0  0  0
    1.0619    0.0522   -0.7636 C   0  0  0  0  0  0  0  0  0  0  0  0
    2.3175    0.0522   -0.3197 N   0  0  0  0  0  0  0  0  0  0  0  0
    2.4569   -0.0675    1.0542 C   0  0  0  0  0  0  0  0  0  0  0  0
   -0.9857   -0.0484    2.2929 N   0  0  0  0  0  0  0  0  0  0  0  0
   -0.3909   -0.0711    3.4841 C   0  0  0  0  0  0  0  0  0  0  0  0
    0.9517    0.0117    3.4120 N   0  0  0  0  0  0  0  0  0  0  0  0
    3.4882    0.1662   -1.2257 C   0  0  0  0  0  0  0  0  0  0  0  0
   -1.3981    0.0687   -0.4949 C   0  0  0  0  0  0  0  0  0  0  0  0
   -2.1470   -1.5146   -0.4219 Cl  0  0  0  0  0  0  0  0  0  0  0  0
   -2.4048    1.1794    0.4710 Cl  0  0  0  0  0  0  0  0  0  0  0  0
    4.0950    1.6157   -1.1731 C   0  0  0  0  0  0  0  0  0  0  0  0
    4.1918    2.2997   -2.4398 N   0  0  0  0  0  0  0  0  0  0  0  0
    2.9066    2.5327   -3.0722 C   0  0  0  0  0  0  0  0  0  0  0  0
    3.0274   -0.0508   -2.5063 O   0  0  0  0  0  0  0  0  0  0  0  0
    4.5778   -0.8919   -0.7540 C   0  0  0  0  0  0  0  0  0  0  0  0
    5.2091    1.7079   -3.2886 C   0  0  0  0  0  0  0  0  0  0  0  0
   -1.0929   -0.0675    4.8216 C   0  0  0  0  0  0  0  0  0  0  0  0
   -2.4194    0.2194    4.4384 O   0  0  0  0  0  0  0  0  0  0  0  0
    5.8152   -0.0131   -0.5133 C   0  0  0  0  0  0  0  0  0  0  0  0
    5.2501    1.3837   -0.2602 C   0  0  0  0  0  0  0  0  0  0  0  0
   -1.1138   -1.4699    5.4494 C   0  0  0  0  0  0  0  0  0  0  0  0
   -1.9306   -1.5517    6.7277 C   0  0  0  0  0  0  0  0  0  0  0  0
  1  2  1  0
  1  4  2  0
  1 11  1  0
  2  3  1  0
  2  7  1  0
  3  6  2  0
  4  5  1  0
  5  6  1  0
  5 10  1  0
  7  8  1  0
  8  9  1  0
  8 20  1  0
 10 14  1  0
 10 17  1  0
 10 18  1  0
 11 12  1  0
 11 13  1  0
 14 15  1  0
 14 23  1  0
 15 16  1  0
 15 19  1  0
 18 22  1  0
 20 21  1  0
 20 24  1  0
 22 23  1  0
 24 25  1  0
M  END

$$$$

     RDKit          3D

 30 32  0  0  0  0  0  0  0  0999 V2000
    0.0000    0.0000    0.0000 C   0  0  0  0  0  0  0  0  0  0  0  0
    0.0000    0.0000    1.4933 C   0  0  0  0  0  0  0  0  0  0  0  0
    1.1490    0.0000    2.2256 N   0  0  0  0  0  0  0  0  0  0  0  0
    1.1846    0.1167   -0.6139 N   0  0  0  0  0  0  0  0  0  0  0  0
    2.3051    0.0063    0.1116 C   0  0  0  0  0  0  0  0  0  0  0  0
    2.3041    0.0161    1.5298 C   0  0  0  0  0  0  0  0  0  0  0  0
    3.4533   -0.0655   -0.5742 N   0  0  0  0  0  0  0  0  0  0  0  0
    3.5139    0.0292    2.2385 C   0  0  0  0  0  0  0  0  0  0  0  0
    4.5763   -0.1271    0.0957 C   0  0  0  0  0  0  0  0  0  0  0  0
    4.6663    0.0319    1.4970 C   0  0  0  0  0  0  0  0  0  0  0  0
    1.2062   -0.2874    3.6384 C   0  0  0  0  0  0  0  0  0  0  0  0
   -1.0693   -0.0525   -0.6181 O   0  0  0  0  0  0  0  0  0  0  0  0
   -1.1864    0.1169    2.2615 C   0  0  0  0  0  0  0  0  0  0  0  0
   -2.4809   -0.2074    1.9169 C   0  0  0  0  0  0  0  0  0  0  0  0
   -2.8071   -1.3404    1.0145 C   0  0  0  0  0  0  0  0  0  0  0  0
   -2.0512   -2.2828    0.8842 O   0  0  0  0  0  0  0  0  0  0  0  0
   -3.5390    0.4081    2.7117 C   0  0  0  0  0  0  0  0  0  0  0  0
   -4.8493   -0.0624    2.4012 C   0  0  0  0  0  0  0  0  0  0  0  0
   -3.4247    1.4496    3.6796 C   0  0  0  0  0  0  0  0  0  0  0  0
   -5.8941    0.4639    3.1741 C   0  0  0  0  0  0  0  0  0  0  0  0
   -4.4812    2.0444    4.3839 C   0  0  0  0  0  0  0  0  0  0  0  0
   -5.7769    1.3934    4.2064 C   0  0  0  0  0  0  0  0  0  0  0  0
   -7.1940   -0.0063    2.9390 N   0  0  0  0  0  0  0  0  0  0  0  0
   -8.0473    0.3491    3.7598 O   0  0  0  0  0  0  0  0  0  0  0  0
   -4.0331   -1.2445    0.4279 N   0  0  0  0  0  0  0  0  0  0  0  0
   -4.5456   -2.4856   -0.1651 C   0  0  0  0  0  0  0  0  0  0  0  0
   -4.7908   -0.0938    0.3908 C   0  0  0  0  0  0  0  0  0  0  0  0
   -5.9609   -0.2014   -0.1690 N   0  0  0  0  0  0  0  0  0  0  0  0
   -2.2577    1.9644    3.9384 O   0  0  0  0  0  0  0  0  0  0  0  0
   -6.0474   -1.4881   -0.6090 C   0  0  0  0  0  0  0  0  0  0  0  0
  1  2  1  0
  1  4  1  0
  1 12  2  0
  2  3  1  0
  2 13  1  0
  3  6  1  0
  3 11  1  0
  4  5  1  0
  5  6  2  0
  5  7  1  0
  6  8  1  0
  7  9  2  0
  8 10  2  0
  9 10  1  0
 13 14  2  3
 14 15  1  0
 14 17  1  0
 15 16  2  0
 15 25  1  0
 17 18  2  0
 17 19  1  0
 18 20  1  0
 19 21  2  0
 19 29  1  0
 20 22  2  0
 20 23  1  0
 21 22  1  0
 23 24  2  0
 25 26  1  0
 25 27  1  0
 27 28  2  3
 28 30  1  0
M  END

$$$$

     RDKit          3D

 21 23  0  0  0  0  0  0  0  0999 V2000
    0.0000    0.0000    0.0000 C   0  0  0  0  0  0  0  0  0  0  0  0
    0.0000    0.0000    1.3393 N   0  0  0  0  0  0  0  0  0  0  0  0
    1.2588    0.0000    1.9006 C   0  0  0  0  0  0  0  0  0  0  0  0
    1.2128    0.0000   -0.7815 C   0  0  0  0  0  0  0  0  0  0  0  0
    2.3499    0.0000   -0.1952 N   0  0  0  0  0  0  0  0  0  0  0  0
    2.4160   -0.0582    1.1724 C   0  0  0  0  0  0  0  0  0  0  0  0
   -1.2128    0.0000    2.1209 C   0  0  0  0  0  0  0  0  0  0  0  0
   -1.0336    0.0000   -0.8276 N   0  0  0  0  0  0  0  0  0  0  0  0
   -0.5514    0.4053    3.4884 C   0  0  0  0  0  0  0  0  0  0  0  0
   -2.4408    0.0000   -0.6503 C   0  0  0  0  0  0  0  0  0  0  0  0
   -3.1734    0.0000    0.5452 C   0  0  0  0  0  0  0  0  0  0  0  0
   -3.0918    0.0546   -1.8818 C   0  0  0  0  0  0  0  0  0  0  0  0
   -4.5625   -0.0552    0.4404 C   0  0  0  0  0  0  0  0  0  0  0  0
   -4.4689    0.0087   -1.9153 C   0  0  0  0  0  0  0  0  0  0  0  0
   -5.2840   -0.1104   -0.7512 C   0  0  0  0  0  0  0  0  0  0  0  0
   -1.1627   -0.2662    4.5357 O   0  0  0  0  0  0  0  0  0  0  0  0
   -0.5917    1.9229    3.6609 C   0  0  0  0  0  0  0  0  0  0  0  0
   -6.7557   -0.2233   -0.7217 C   0  0  0  0  0  0  0  0  0  0  0  0
   -7.3806   -0.2714    0.3031 O   0  0  0  0  0  0  0  0  0  0  0  0
   -7.3272   -0.3187   -1.9123 O   0  0  0  0  0  0  0  0  0  0  0  0
   -2.6225    0.0000    1.7745 O   0  0  0  0  0  0  0  0  0  0  0  0
  1  2  1  0
  1  4  1  0
  1  8  2  0
  2  3  1  0
  2  7  1  0
  3  6  2  0
  4  5  2  0
  5  6  1  0
  7  9  1  0
  7 21  1  0
  8 10  1  0
  9 16  1  0
  9 17  1  0
 10 11  2  0
 10 12  1  0
 11 13  1  0
 11 21  1  0
 12 14  2  0
 13 15  2  0
 14 15  1  0
 15 18  1  0
 18 19  2  0
 18 20  1  0
M  END

$$$$

     RDKit          3D

 30 32  0  0  0  0  0  0  0  0999 V2000
    0.0000    0.0000    0.0000 C   0  0  0  0  0  0  0  0  0  0  0  0
    0.0000    0.0000    1.3393 C   0  0  0  0  0  0  0  0  0  0  0  0
    1.1243    0.0000    2.1091 N   0  0  0  0  0  0  0  0  0  0  0  0
    1.1077   -0.1091   -0.7172 N   0  0  0  0  0  0  0  0  0  0  0  0
    2.2862   -0.0512   -0.0359 C   0  0  0  0  0  0  0  0  0  0  0  0
    2.2908    0.0014    1.3732 C   0  0  0  0  0  0  0  0  0  0  0  0
    3.5531    0.0225   -0.5103 N   0  0  0  0  0  0  0  0  0  0  0  0
    3.6404    0.1046    1.6720 N   0  0  0  0  0  0  0  0  0  0  0  0
    4.3918    0.1108    0.5105 C   0  0  0  0  0  0  0  0  0  0  0  0
    1.1807    0.5011    3.4522 C   0  0  0  0  0  0  0  0  0  0  0  0
    5.7598    0.1492    0.4396 N   0  0  0  0  0  0  0  0  0  0  0  0
    2.1920    1.6637    3.5709 C   0  0  0  0  0  0  0  0  0  0  0  0
    2.8743    1.7231    4.5747 O   0  0  0  0  0  0  0  0  0  0  0  0
   -1.3065    0.0642   -0.7552 C   0  0  0  0  0  0  0  0  0  0  0  0
   -2.0874   -0.9886   -0.3555 F   0  0  0  0  0  0  0  0  0  0  0  0
   -1.9326    1.2355   -0.5307 F   0  0  0  0  0  0  0  0  0  0  0  0
   -1.2603   -0.0651   -2.0953 F   0  0  0  0  0  0  0  0  0  0  0  0
    2.3058    2.5265    2.5124 N   0  0  0  0  0  0  0  0  0  0  0  0
    1.2374    2.7655    1.6235 C   0  0  0  0  0  0  0  0  0  0  0  0
   -0.0775    2.8514    2.0786 C   0  0  0  0  0  0  0  0  0  0  0  0
    1.5022    3.0027    0.2755 C   0  0  0  0  0  0  0  0  0  0  0  0
   -1.1469    3.1321    1.2556 C   0  0  0  0  0  0  0  0  0  0  0  0
    0.4180    3.2830   -0.5549 C   0  0  0  0  0  0  0  0  0  0  0  0
   -0.8555    3.3907   -0.0747 C   0  0  0  0  0  0  0  0  0  0  0  0
    3.5791    3.2884    2.2299 C   0  0  0  0  0  0  0  0  0  0  0  0
    3.6613    4.3416    3.3458 C   0  0  0  0  0  0  0  0  0  0  0  0
    2.4106    5.1884    3.3577 C   0  0  0  0  0  0  0  0  0  0  0  0
    2.0580    5.8884    2.4473 O   0  0  0  0  0  0  0  0  0  0  0  0
    3.1603    3.0216   -0.4081 S   0  0  0  0  0  0  0  0  0  0  0  0
    4.7113    2.2767    2.1825 C   0  0  0  0  0  0  0  0  0  0  0  0
  1  2  2  0
  1  4  1  0
  1 14  1  0
  2  3  1  0
  3  6  1  0
  3 10  1  0
  4  5  2  0
  5  6  1  0
  5  7  1  0
  6  8  2  0
  7  9  2  0
  8  9  1  0
  9 11  1  0
 10 12  1  0
 12 13  2  0
 12 18  1  0
 14 15  1  0
 14 16  1  0
 14 17  1  0
 18 19  1  0
 18 25  1  0
 19 20  2  0
 19 21  1  0
 20 22  1  0
 21 23  2  0
 21 29  1  0
 22 24  2  0
 23 24  1  0
 25 26  1  0
 25 30  1  0
 26 27  1  0
 27 28  2  0
M  END

$$$$

     RDKit          3D

 31 35  0  0  0  0  0  0  0  0999 V2000
    0.0000    0.0000    0.0000 N   0  0  0  0  0  0  0  0  0  0  0  0
    0.0000    0.0000    1.3941 C   0  0  0  0  0  0  0  0  0  0  0  0
    1.1837    0.0000    2.2046 C   0  0  0  0  0  0  0  0  0  0  0  0
    1.2008   -0.1183   -0.4881 C   0  0  0  0  0  0  0  0  0  0  0  0
    2.4275   -0.1785    0.2211 C   0  0  0  0  0  0  0  0  0  0  0  0
    2.3680   -0.1668    1.5514 N   0  0  0  0  0  0  0  0  0  0  0  0
    1.2320    0.1164    3.4343 O   0  0  0  0  0  0  0  0  0  0  0  0
    1.5749   -0.2159   -1.9662 C   0  0  0  0  0  0  0  0  0  0  0  0
    3.5407   -0.2494   -0.5203 N   0  0  0  0  0  0  0  0  0  0  0  0
    0.9776   -1.3126   -2.6889 N   0  0  0  0  0  0  0  0  0  0  0  0
    3.0714   -0.3853   -1.7671 C   0  0  0  0  0  0  0  0  0  0  0  0
    4.0021   -0.4777   -2.7365 C   0  0  0  0  0  0  0  0  0  0  0  0
   -1.2658    0.0622    1.9750 N   0  0  0  0  0  0  0  0  0  0  0  0
   -1.5311    0.1286    3.2940 C   0  0  0  0  0  0  0  0  0  0  0  0
   -2.4526    0.0622    1.2898 C   0  0  0  0  0  0  0  0  0  0  0  0
   -2.8237    0.2281    3.5236 N   0  0  0  0  0  0  0  0  0  0  0  0
   -3.4158    0.1884    2.2563 C   0  0  0  0  0  0  0  0  0  0  0  0
    3.5049   -0.1673    2.3581 O   0  0  0  0  0  0  0  0  0  0  0  0
    3.8341   -0.3710   -4.1993 C   0  0  0  0  0  0  0  0  0  0  0  0
    3.3417    0.8608   -4.6280 C   0  0  0  0  0  0  0  0  0  0  0  0
    4.1388   -1.3800   -5.0874 C   0  0  0  0  0  0  0  0  0  0  0  0
    3.2149    1.0240   -5.9907 C   0  0  0  0  0  0  0  0  0  0  0  0
    4.0085   -1.2127   -6.4815 C   0  0  0  0  0  0  0  0  0  0  0  0
    3.5268    0.0901   -6.9663 C   0  0  0  0  0  0  0  0  0  0  0  0
    1.2647   -2.6418   -2.3473 C   0  0  0  0  0  0  0  0  0  0  0  0
    1.5188   -3.0930   -1.0700 C   0  0  0  0  0  0  0  0  0  0  0  0
    1.3169   -3.6026   -3.3671 C   0  0  0  0  0  0  0  0  0  0  0  0
    1.7494   -4.4274   -0.7742 C   0  0  0  0  0  0  0  0  0  0  0  0
    1.4690   -4.9553   -3.0658 C   0  0  0  0  0  0  0  0  0  0  0  0
    1.6580   -5.3347   -1.8287 C   0  0  0  0  0  0  0  0  0  0  0  0
    1.1689   -3.0480   -4.6201 O   0  0  0  0  0  0  0  0  0  0  0  0
  1  2  2  0
  1  4  1  0
  2  3  1  0
  2 13  1  0
  3  6  1  0
  3  7  2  0
  4  5  2  0
  4  8  1  0
  5  6  1  0
  5  9  1  0
  6 18  1  0
  8 10  1  0
  8 11  1  0
  9 11  1  0
 10 25  1  0
 11 12  2  3
 12 19  1  0
 13 14  1  0
 13 15  1  0
 14 16  2  0
 15 17  2  0
 16 17  1  0
 19 20  2  0
 19 21  1  0
 20 22  1  0
 21 23  2  0
 22 24  2  0
 23 24  1  0
 25 26  2  0
 25 27  1  0
 26 28  1  0
 27 29  2  0
 27 31  1  0
 28 30  2  0
 29 30  1  0
M  END

$$$$

     RDKit          3D

 30 32  0  0  0  0  0  0  0  0999 V2000
    0.0000    0.0000    0.0000 C   0  0  0  0  0  0  0  0  0  0  0  0
    0.0000    0.0000    1.3941 C   0  0  0  0  0  0  0  0  0  0  0  0
    1.1905    0.0000    2.0728 N   0  0  0  0  0  0  0  0  0  0  0  0
    1.0928    0.0537   -0.7858 N   0  0  0  0  0  0  0  0  0  0  0  0
    2.3001    0.0537   -0.0887 C   0  0  0  0  0  0  0  0  0  0  0  0
    2.3765   -0.0005    1.3846 C   0  0  0  0  0  0  0  0  0  0  0  0
    3.2635    0.1472   -0.8348 O   0  0  0  0  0  0  0  0  0  0  0  0
    3.3948   -0.0457    2.0203 O   0  0  0  0  0  0  0  0  0  0  0  0
   -1.2480   -0.0613    2.1155 C   0  0  0  0  0  0  0  0  0  0  0  0
   -1.4502   -0.0177    3.4544 C   0  0  0  0  0  0  0  0  0  0  0  0
   -0.5007    0.0995    4.5125 C   0  0  0  0  0  0  0  0  0  0  0  0
   -0.8992    0.1795    5.7968 C   0  0  0  0  0  0  0  0  0  0  0  0
    1.2426   -0.0520    3.5137 C   0  0  0  0  0  0  0  0  0  0  0  0
    1.1422    0.1082   -2.2267 C   0  0  0  0  0  0  0  0  0  0  0  0
   -0.0424    0.3572    6.9544 C   0  0  0  0  0  0  0  0  0  0  0  0
    1.1291    1.0758    6.8514 C   0  0  0  0  0  0  0  0  0  0  0  0
   -0.4357   -0.1370    8.2426 C   0  0  0  0  0  0  0  0  0  0  0  0
    1.9680    1.3179    7.9588 C   0  0  0  0  0  0  0  0  0  0  0  0
    0.4217    0.1081    9.3663 C   0  0  0  0  0  0  0  0  0  0  0  0
   -1.6007   -0.8624    8.4879 C   0  0  0  0  0  0  0  0  0  0  0  0
    1.6346    0.8344    9.1969 C   0  0  0  0  0  0  0  0  0  0  0  0
    0.0179   -0.4401   10.6012 C   0  0  0  0  0  0  0  0  0  0  0  0
   -1.9142   -1.3621    9.7422 C   0  0  0  0  0  0  0  0  0  0  0  0
   -1.1065   -1.1772   10.8226 C   0  0  0  0  0  0  0  0  0  0  0  0
   -1.1519   -0.0566   -0.6658 O   0  0  0  0  0  0  0  0  0  0  0  0
   -3.0976   -1.9869    9.7971 O   0  0  0  0  0  0  0  0  0  0  0  0
   -3.7038   -2.6698   10.9249 C   0  0  0  0  0  0  0  0  0  0  0  0
   -3.9481   -1.6934   12.0861 C   0  0  0  0  0  0  0  0  0  0  0  0
   -5.0013   -3.2274   10.3890 C   0  0  0  0  0  0  0  0  0  0  0  0
   -5.5085   -4.4421   10.3690 C   0  0  0  0  0  0  0  0  0  0  0  0
  1  2  2  0
  1  4  1  0
  1 25  1  0
  2  3  1  0
  2  9  1  0
  3  6  1  0
  3 13  1  0
  4  5  1  0
  4 14  1  0
  5  6  1  0
  5  7  2  0
  6  8  2  0
  9 10  2  3
 10 11  1  0
 11 12  2  3
 12 15  1  0
 15 16  2  0
 15 17  1  0
 16 18  1  0
 17 19  2  0
 17 20  1  0
 18 21  2  0
 19 21  1  0
 19 22  1  0
 20 23  2  0
 22 24  2  0
 23 24  1  0
 23 26  1  0
 26 27  1  0
 27 28  1  0
 27 29  1  0
 29 30  2  0
M  END

$$$$

     RDKit          3D

 32 35  0  0  0  0  0  0  0  0999 V2000
    0.0000    0.0000    0.0000 C   0  0  0  0  0  0  0  0  0  0  0  0
    0.0000    0.0000    1.3165 N   0  0  0  0  0  0  0  0  0  0  0  0
    1.2712    0.0000    1.7622 C   0  0  0  0  0  0  0  0  0  0  0  0
    1.0945    0.0000   -0.8763 C   0  0  0  0  0  0  0  0  0  0  0  0
    2.2805    0.0000   -0.3966 N   0  0  0  0  0  0  0  0  0  0  0  0
    2.4219    0.0000    0.9744 C   0  0  0  0  0  0  0  0  0  0  0  0
    3.7457    0.0523    1.5664 C   0  0  0  0  0  0  0  0  0  0  0  0
    4.9013    0.0432    0.7303 C   0  0  0  0  0  0  0  0  0  0  0  0
    4.0812    0.1145    2.8855 C   0  0  0  0  0  0  0  0  0  0  0  0
    6.0000    0.1522    1.5154 C   0  0  0  0  0  0  0  0  0  0  0  0
    5.7593    0.2334    3.2580 S   0  0  0  0  0  0  0  0  0  0  0  0
    7.3260    0.2354    1.0673 N   0  0  0  0  0  0  0  0  0  0  0  0
    8.2672    0.5930    2.0546 C   0  0  0  0  0  0  0  0  0  0  0  0
    8.2844    1.9033    2.5304 C   0  0  0  0  0  0  0  0  0  0  0  0
    9.1562   -0.3444    2.5347 C   0  0  0  0  0  0  0  0  0  0  0  0
    9.1480    2.2841    3.5240 C   0  0  0  0  0  0  0  0  0  0  0  0
   10.0550    0.0518    3.5690 C   0  0  0  0  0  0  0  0  0  0  0  0
   10.0529    1.3730    4.1066 C   0  0  0  0  0  0  0  0  0  0  0  0
   10.8630   -0.8988    4.0347 N   0  0  0  0  0  0  0  0  0  0  0  0
   10.9427    1.6247    5.1606 C   0  0  0  0  0  0  0  0  0  0  0  0
   11.6859   -0.5858    5.0339 C   0  0  0  0  0  0  0  0  0  0  0  0
   11.7584    0.6144    5.6897 C   0  0  0  0  0  0  0  0  0  0  0  0
   10.8259    2.9093    5.5748 O   0  0  0  0  0  0  0  0  0  0  0  0
    9.1734   -1.6260    2.0956 O   0  0  0  0  0  0  0  0  0  0  0  0
   12.5111   -1.6398    5.3938 N   0  0  0  0  0  0  0  0  0  0  0  0
   12.4641   -2.8501    4.6098 C   0  0  0  0  0  0  0  0  0  0  0  0
   12.7939   -1.8589    6.7831 C   0  0  0  0  0  0  0  0  0  0  0  0
   11.6035    3.3404    6.6693 C   0  0  0  0  0  0  0  0  0  0  0  0
   11.1503   -3.6079    4.9069 C   0  0  0  0  0  0  0  0  0  0  0  0
   11.8184   -2.9471    7.3379 C   0  0  0  0  0  0  0  0  0  0  0  0
   12.6478    0.9188    6.6869 O   0  0  0  0  0  0  0  0  0  0  0  0
   10.5608   -3.0930    6.4361 C   0  0  0  0  0  0  0  0  0  0  0  0
  1  2  2  0
  1  4  1  0
  2  3  1  0
  3  6  2  0
  4  5  2  0
  5  6  1  0
  6  7  1  0
  7  8  1  0
  7  9  2  0
  8 10  2  0
  9 11  1  0
 10 11  1  0
 10 12  1  0
 12 13  1  0
 13 14  2  0
 13 15  1  0
 14 16  1  0
 15 17  2  0
 15 24  1  0
 16 18  2  0
 17 18  1  0
 17 19  1  0
 18 20  1  0
 19 21  2  0
 20 22  2  0
 20 23  1  0
 21 22  1  0
 21 25  1  0
 22 31  1  0
 23 28  1  0
 25 26  1  0
 25 27  1  0
 26 29  1  0
 27 30  1  0
 30 32  1  0
M  END

$$$$

     RDKit          3D

 32 34  0  0  0  0  0  0  0  0999 V2000
    0.0000    0.0000    0.0000 C   0  0  0  0  0  0  0  0  0  0  0  0
    0.0000    0.0000    1.4428 C   0  0  0  0  0  0  0  0  0  0  0  0
    1.2156    0.0000    2.0584 N   0  0  0  0  0  0  0  0  0  0  0  0
    1.0826    0.1066   -0.7010 N   0  0  0  0  0  0  0  0  0  0  0  0
    2.2816    0.1655   -0.0079 C   0  0  0  0  0  0  0  0  0  0  0  0
    2.2862    0.1110    1.3535 C   0  0  0  0  0  0  0  0  0  0  0  0
   -1.3429   -0.0660    2.4085 S   0  0  0  0  0  0  0  0  0  0  0  0
    3.5108    0.2348   -0.8680 C   0  0  0  0  0  0  0  0  0  0  0  0
   -1.2250    0.0000   -0.6317 N   0  0  0  0  0  0  0  0  0  0  0  0
    3.3457   -0.7435   -2.0184 C   0  0  0  0  0  0  0  0  0  0  0  0
    3.0458   -0.3180   -3.1241 O   0  0  0  0  0  0  0  0  0  0  0  0
    3.4764   -2.0474   -1.7419 N   0  0  0  0  0  0  0  0  0  0  0  0
    3.1745   -2.9469   -2.8508 C   0  0  0  0  0  0  0  0  0  0  0  0
    2.0999   -3.9441   -2.4203 C   0  0  0  0  0  0  0  0  0  0  0  0
    2.4673   -4.6455   -1.1136 C   0  0  0  0  0  0  0  0  0  0  0  0
    2.7515   -3.6062   -0.0303 C   0  0  0  0  0  0  0  0  0  0  0  0
    4.4764   -3.5157   -3.3887 C   0  0  0  0  0  0  0  0  0  0  0  0
    4.8356   -4.8465   -3.2431 C   0  0  0  0  0  0  0  0  0  0  0  0
    5.3579   -2.6561   -4.0926 C   0  0  0  0  0  0  0  0  0  0  0  0
    6.0711   -5.3142   -3.7131 C   0  0  0  0  0  0  0  0  0  0  0  0
    6.5861   -3.1204   -4.5611 C   0  0  0  0  0  0  0  0  0  0  0  0
    6.9561   -4.4190   -4.2742 C   0  0  0  0  0  0  0  0  0  0  0  0
    7.4903   -2.3148   -5.2024 O   0  0  0  0  0  0  0  0  0  0  0  0
    4.8357   -1.4190   -4.2731 O   0  0  0  0  0  0  0  0  0  0  0  0
    5.5317   -0.4486   -4.9923 C   0  0  0  0  0  0  0  0  0  0  0  0
    3.9122   -2.7199   -0.5624 C   0  0  0  0  0  0  0  0  0  0  0  0
   -1.2812    0.6425   -1.9224 C   0  0  0  0  0  0  0  0  0  0  0  0
    1.5346   -2.7802    0.3137 C   0  0  0  0  0  0  0  0  0  0  0  0
    0.4482   -2.9905   -0.2050 O   0  0  0  0  0  0  0  0  0  0  0  0
    3.9342   -5.6666   -2.6337 O   0  0  0  0  0  0  0  0  0  0  0  0
    4.0573   -7.0959   -2.6286 C   0  0  0  0  0  0  0  0  0  0  0  0
    8.7489   -2.7212   -5.6432 C   0  0  0  0  0  0  0  0  0  0  0  0
  1  2  2  0
  1  4  1  0
  1  9  1  0
  2  3  1  0
  2  7  1  0
  3  6  2  0
  4  5  2  0
  5  6  1  0
  5  8  1  0
  8 10  1  0
  9 27  1  0
 10 11  2  0
 10 12  1  0
 12 13  1  0
 12 26  1  0
 13 14  1  0
 13 17  1  0
 14 15  1  0
 15 16  1  0
 16 26  1  0
 16 28  1  0
 17 18  2  0
 17 19  1  0
 18 20  1  0
 18 30  1  0
 19 21  2  0
 19 24  1  0
 20 22  2  0
 21 22  1  0
 21 23  1  0
 23 32  1  0
 24 25  1  0
 28 29  2  0
 30 31  1  0
M  END

$$$$

     RDKit          3D

 19 19  0  0  0  0  0  0  0  0999 V2000
    0.0000    0.0000    0.0000 C   0  0  0  0  0  0  0  0  0  0  0  0
    0.0000    0.0000    1.3015 N   0  0  0  0  0  0  0  0  0  0  0  0
    1.2296    0.0000    1.9242 C   0  0  0  0  0  0  0  0  0  0  0  0
    1.2070   -0.1189   -0.7815 C   0  0  0  0  0  0  0  0  0  0  0  0
    2.3648   -0.0048   -0.1816 N   0  0  0  0  0  0  0  0  0  0  0  0
    2.3652   -0.0014    1.1200 C   0  0  0  0  0  0  0  0  0  0  0  0
    1.2804    0.0509    3.3326 C   0  0  0  0  0  0  0  0  0  0  0  0
    1.3451    0.1405    4.4747 N   0  0  0  0  0  0  0  0  0  0  0  0
    1.2407   -0.3229   -2.1204 N   0  0  0  0  0  0  0  0  0  0  0  0
    0.1645    0.1366   -2.9645 C   0  0  0  0  0  0  0  0  0  0  0  0
    0.5400    1.5396   -3.5666 C   0  0  0  0  0  0  0  0  0  0  0  0
    1.4466    2.1726   -2.6139 N   0  0  0  0  0  0  0  0  0  0  0  0
    2.4817   -0.3840   -2.8700 C   0  0  0  0  0  0  0  0  0  0  0  0
    3.0867    1.0654   -2.9431 C   0  0  0  0  0  0  0  0  0  0  0  0
   -1.1519    0.0566   -0.6658 O   0  0  0  0  0  0  0  0  0  0  0  0
   -0.7320    2.3462   -3.7643 C   0  0  0  0  0  0  0  0  0  0  0  0
    1.2159    1.4040   -4.9399 C   0  0  0  0  0  0  0  0  0  0  0  0
    1.3254    3.5991   -2.5214 C   0  0  0  0  0  0  0  0  0  0  0  0
   -2.3426    0.1151    0.1024 C   0  0  0  0  0  0  0  0  0  0  0  0
  1  2  2  0
  1  4  1  0
  1 15  1  0
  2  3  1  0
  3  6  2  0
  3  7  1  0
  4  5  2  0
  4  9  1  0
  5  6  1  0
  7  8  3  0
  9 10  1  0
  9 13  1  0
 10 11  1  0
 11 12  1  0
 11 16  1  0
 11 17  1  0
 12 18  1  0
 13 14  1  0
 15 19  1  0
M  END

$$$$

     RDKit          3D

 31 34  0  0  0  0  0  0  0  0999 V2000
    0.0000    0.0000    0.0000 C   0  0  0  0  0  0  0  0  0  0  0  0
    0.0000    0.0000    1.3941 C   0  0  0  0  0  0  0  0  0  0  0  0
    1.1984    0.0000    2.0260 N   0  0  0  0  0  0  0  0  0  0  0  0
    1.1194    0.0000   -0.7213 N   0  0  0  0  0  0  0  0  0  0  0  0
    2.3030    0.0000   -0.1110 C   0  0  0  0  0  0  0  0  0  0  0  0
    2.2999    0.1149    1.2784 C   0  0  0  0  0  0  0  0  0  0  0  0
    3.4997   -0.0526   -0.9447 C   0  0  0  0  0  0  0  0  0  0  0  0
    3.4934    0.5575   -2.2071 C   0  0  0  0  0  0  0  0  0  0  0  0
    4.6978   -0.6748   -0.4841 C   0  0  0  0  0  0  0  0  0  0  0  0
    4.6832    0.7750   -2.9163 C   0  0  0  0  0  0  0  0  0  0  0  0
    4.7230   -1.5327    0.6347 C   0  0  0  0  0  0  0  0  0  0  0  0
    5.9093   -0.4486   -1.2184 C   0  0  0  0  0  0  0  0  0  0  0  0
    5.8542    0.3291   -2.3810 C   0  0  0  0  0  0  0  0  0  0  0  0
    5.9341   -2.0814    1.0799 C   0  0  0  0  0  0  0  0  0  0  0  0
    7.0632   -1.0365   -0.7022 C   0  0  0  0  0  0  0  0  0  0  0  0
    7.1640   -1.8099    0.4457 C   0  0  0  0  0  0  0  0  0  0  0  0
    3.4944   -2.1088    1.2982 C   0  0  0  0  0  0  0  0  0  0  0  0
    8.2798   -2.3595    1.0021 O   0  0  0  0  0  0  0  0  0  0  0  0
    5.8874   -3.0179    2.1008 O   0  0  0  0  0  0  0  0  0  0  0  0
    9.5052   -2.1611    0.3854 C   0  0  0  0  0  0  0  0  0  0  0  0
    9.8009   -2.6885   -0.8708 C   0  0  0  0  0  0  0  0  0  0  0  0
   10.4735   -1.5524    1.1544 C   0  0  0  0  0  0  0  0  0  0  0  0
   11.0434   -2.5072   -1.4196 C   0  0  0  0  0  0  0  0  0  0  0  0
   11.7303   -1.3780    0.5963 C   0  0  0  0  0  0  0  0  0  0  0  0
   12.0360   -1.8396   -0.6882 C   0  0  0  0  0  0  0  0  0  0  0  0
    6.9959    0.6073   -3.0859 O   0  0  0  0  0  0  0  0  0  0  0  0
    6.4641   -2.5791    3.3580 C   0  0  0  0  0  0  0  0  0  0  0  0
   13.2985   -1.7228   -1.2680 N   0  0  0  0  0  0  0  0  0  0  0  0
   14.2137   -1.1805   -0.6384 O   0  0  0  0  0  0  0  0  0  0  0  0
    2.3604    1.0293   -2.7042 O   0  0  0  0  0  0  0  0  0  0  0  0
    7.1874   -3.7707    3.9835 C   0  0  0  0  0  0  0  0  0  0  0  0
  1  2  2  0
  1  4  1  0
  2  3  1  0
  3  6  2  0
  4  5  2  0
  5  6  1  0
  5  7  1  0
  7  8  2  0
  7  9  1  0
  8 10  1  0
  8 30  1  0
  9 11  2  0
  9 12  1  0
 10 13  2  0
 11 14  1  0
 11 17  1  0
 12 13  1  0
 12 15  2  0
 13 26  1  0
 14 16  2  0
 14 19  1  0
 15 16  1  0
 16 18  1  0
 18 20  1  0
 19 27  1  0
 20 21  2  0
 20 22  1  0
 21 23  1  0
 22 24  2  0
 23 25  2  0
 24 25  1  0
 25 28  1  0
 27 31  1  0
 28 29  2  0
M  END

$$$$

     RDKit          3D

 31 33  0  0  0  0  0  0  0  0999 V2000
    0.0000    0.0000    0.0000 C   0  0  0  0  0  0  0  0  0  0  0  0
    0.0000    0.0000    1.3941 N   0  0  0  0  0  0  0  0  0  0  0  0
    1.1678    0.0000    1.9855 C   0  0  0  0  0  0  0  0  0  0  0  0
    1.1596    0.1142   -0.7508 C   0  0  0  0  0  0  0  0  0  0  0  0
    2.3230    0.1142   -0.1509 N   0  0  0  0  0  0  0  0  0  0  0  0
    2.4529    0.1243    1.1976 C   0  0  0  0  0  0  0  0  0  0  0  0
   -1.2605    0.0000   -0.6500 C   0  0  0  0  0  0  0  0  0  0  0  0
   -2.2746    0.0000   -1.1730 N   0  0  0  0  0  0  0  0  0  0  0  0
    3.6776    0.0750    1.7747 N   0  0  0  0  0  0  0  0  0  0  0  0
    1.1139   -0.0539    3.4768 N   0  0  0  0  0  0  0  0  0  0  0  0
    3.9905    0.4756    3.1075 C   0  0  0  0  0  0  0  0  0  0  0  0
    3.5387    1.7470    3.4890 C   0  0  0  0  0  0  0  0  0  0  0  0
    4.6138   -0.3622    4.0671 C   0  0  0  0  0  0  0  0  0  0  0  0
    3.7050    2.1312    4.8188 C   0  0  0  0  0  0  0  0  0  0  0  0
    4.7765    0.0282    5.3706 C   0  0  0  0  0  0  0  0  0  0  0  0
    4.3458    1.3242    5.7340 C   0  0  0  0  0  0  0  0  0  0  0  0
    5.1792   -1.7131    3.6630 C   0  0  0  0  0  0  0  0  0  0  0  0
    3.0018    2.7994    2.5619 C   0  0  0  0  0  0  0  0  0  0  0  0
    4.1009   -2.7384    3.2791 C   0  0  0  0  0  0  0  0  0  0  0  0
    4.7832   -0.0462    0.8039 C   0  0  0  0  0  0  0  0  0  0  0  0
    4.4806   -1.2156   -0.1742 C   0  0  0  0  0  0  0  0  0  0  0  0
    4.0648   -2.2414    0.3271 O   0  0  0  0  0  0  0  0  0  0  0  0
    6.2227   -1.5795    2.5309 C   0  0  0  0  0  0  0  0  0  0  0  0
    6.1151   -0.2394    1.5085 C   0  0  0  0  0  0  0  0  0  0  0  0
    4.7447   -1.0797   -1.4880 N   0  0  0  0  0  0  0  0  0  0  0  0
    4.4374   -2.1046   -2.4313 C   0  0  0  0  0  0  0  0  0  0  0  0
    4.9603    1.1728   -0.0554 C   0  0  0  0  0  0  0  0  0  0  0  0
    5.3616    1.2586   -1.3547 C   0  0  0  0  0  0  0  0  0  0  0  0
    4.6556    2.7439    0.6095 S   0  0  0  0  0  0  0  0  0  0  0  0
    5.4762    2.5818   -1.8522 C   0  0  0  0  0  0  0  0  0  0  0  0
    5.1246    3.4723   -0.8799 C   0  0  0  0  0  0  0  0  0  0  0  0
  1  2  1  0
  1  4  2  0
  1  7  1  0
  2  3  2  0
  3  6  1  0
  3 10  1  0
  4  5  2  0
  5  6  1  0
  6  9  1  0
  7  8  3  0
  9 11  1  0
  9 20  1  0
 11 12  2  0
 11 13  1  0
 12 14  1  0
 12 18  1  0
 13 15  2  0
 13 17  1  0
 14 16  2  0
 15 16  1  0
 17 19  1  0
 17 23  1  0
 20 21  1  0
 20 24  1  0
 20 27  1  0
 21 22  2  0
 21 25  1  0
 25 26  1  0
 27 28  2  0
 27 29  1  0
 28 30  1  0
 29 31  1  0
 30 31  2  0
M  END

$$$$

     RDKit          3D

 22 23  0  0  0  0  0  0  0  0999 V2000
    0.0000    0.0000    0.0000 C   0  0  0  0  0  0  0  0  0  0  0  0
    0.0000    0.0000    1.3862 N   0  0  0  0  0  0  0  0  0  0  0  0
    1.2588    0.0000    1.9474 C   0  0  0  0  0  0  0  0  0  0  0  0
    1.2338   -0.0606   -0.7132 C   0  0  0  0  0  0  0  0  0  0  0  0
    2.3968   -0.0606   -0.1801 N   0  0  0  0  0  0  0  0  0  0  0  0
    2.3972   -0.0538    1.2300 C   0  0  0  0  0  0  0  0  0  0  0  0
   -1.1572   -0.0568    2.2182 C   0  0  0  0  0  0  0  0  0  0  0  0
   -0.7836   -0.0973    3.6546 C   0  0  0  0  0  0  0  0  0  0  0  0
   -1.6678   -0.2104    4.7162 C   0  0  0  0  0  0  0  0  0  0  0  0
    0.5590   -0.0776    4.0295 C   0  0  0  0  0  0  0  0  0  0  0  0
   -1.3747   -0.2025    6.0548 C   0  0  0  0  0  0  0  0  0  0  0  0
    0.9524   -0.1628    5.3394 C   0  0  0  0  0  0  0  0  0  0  0  0
   -0.0064   -0.0617    6.3655 C   0  0  0  0  0  0  0  0  0  0  0  0
   -2.2695   -0.1115    1.7677 O   0  0  0  0  0  0  0  0  0  0  0  0
    0.2358   -0.0093    7.7293 N   0  0  0  0  0  0  0  0  0  0  0  0
    1.4755    0.0699    8.2891 C   0  0  0  0  0  0  0  0  0  0  0  0
    2.5565    0.1083    7.7354 O   0  0  0  0  0  0  0  0  0  0  0  0
   -1.1067    0.0000   -0.7131 N   0  0  0  0  0  0  0  0  0  0  0  0
    1.2763    0.1647    9.8009 C   0  0  0  0  0  0  0  0  0  0  0  0
    0.4094    1.3427   10.3002 C   0  0  0  0  0  0  0  0  0  0  0  0
   -0.9576    1.1556    9.8244 N   0  0  0  0  0  0  0  0  0  0  0  0
    0.7394   -1.1348   10.3989 C   0  0  0  0  0  0  0  0  0  0  0  0
  1  2  1  0
  1  4  1  0
  1 18  2  0
  2  3  1  0
  2  7  1  0
  3  6  2  0
  4  5  2  0
  5  6  1  0
  7  8  1  0
  7 14  2  0
  8  9  2  0
  8 10  1  0
  9 11  1  0
 10 12  2  0
 11 13  2  0
 12 13  1  0
 13 15  1  0
 15 16  1  0
 16 17  2  0
 16 19  1  0
 19 20  1  0
 19 22  1  0
 20 21  1  0
M  END

$$$$

     RDKit          3D

 22 25  0  0  0  0  0  0  0  0999 V2000
    0.0000    0.0000    0.0000 N   0  0  0  0  0  0  0  0  0  0  0  0
    0.0000    0.0000    1.4346 C   0  0  0  0  0  0  0  0  0  0  0  0
    1.1346    0.0000    2.1318 C   0  0  0  0  0  0  0  0  0  0  0  0
    1.2788   -0.1260   -0.5198 C   0  0  0  0  0  0  0  0  0  0  0  0
    2.3982   -0.1260    0.2015 C   0  0  0  0  0  0  0  0  0  0  0  0
    2.3414   -0.0551    1.5847 N   0  0  0  0  0  0  0  0  0  0  0  0
    3.6966   -0.3254   -0.4720 N   0  0  0  0  0  0  0  0  0  0  0  0
    3.0910   -0.3914   -1.7891 C   0  0  0  0  0  0  0  0  0  0  0  0
    3.9002   -0.5291   -2.9061 C   0  0  0  0  0  0  0  0  0  0  0  0
    1.7043   -0.3145   -1.9108 C   0  0  0  0  0  0  0  0  0  0  0  0
    3.0129   -0.6150   -3.9883 C   0  0  0  0  0  0  0  0  0  0  0  0
    0.8321   -0.3987   -2.9746 C   0  0  0  0  0  0  0  0  0  0  0  0
    1.6291   -0.5833   -4.0629 C   0  0  0  0  0  0  0  0  0  0  0  0
    5.3805   -0.6256   -2.9685 C   0  0  0  0  0  0  0  0  0  0  0  0
    4.7507    0.6817   -0.3012 C   0  0  0  0  0  0  0  0  0  0  0  0
    4.4056    2.0005   -0.5932 C   0  0  0  0  0  0  0  0  0  0  0  0
    5.9625    0.3274    0.2516 C   0  0  0  0  0  0  0  0  0  0  0  0
    5.4231    2.9267   -0.3688 C   0  0  0  0  0  0  0  0  0  0  0  0
    6.9632    1.2480    0.4768 C   0  0  0  0  0  0  0  0  0  0  0  0
    6.6816    2.5634    0.1083 C   0  0  0  0  0  0  0  0  0  0  0  0
    3.0783    2.4766   -1.0581 C   0  0  0  0  0  0  0  0  0  0  0  0
    7.7548    3.5872    0.2815 C   0  0  0  0  0  0  0  0  0  0  0  0
  1  2  2  0
  1  4  1  0
  2  3  1  0
  3  6  2  0
  4  5  2  0
  4 10  1  0
  5  6  1  0
  5  7  1  0
  7  8  1  0
  7 15  1  0
  8  9  1  0
  8 10  2  0
  9 11  2  0
  9 14  1  0
 10 12  1  0
 11 13  1  0
 12 13  2  0
 15 16  2  0
 15 17  1  0
 16 18  1  0
 16 21  1  0
 17 19  2  0
 18 20  2  0
 19 20  1  0
 20 22  1  0
M  END

$$$$

     RDKit          3D

 31 34  0  0  0  0  0  0  0  0999 V2000
    0.0000    0.0000    0.0000 N   0  0  0  0  0  0  0  0  0  0  0  0
    0.0000    0.0000    1.3548 C   0  0  0  0  0  0  0  0  0  0  0  0
    1.2167    0.0000    2.1303 C   0  0  0  0  0  0  0  0  0  0  0  0
    1.2762    0.1257   -0.6613 C   0  0  0  0  0  0  0  0  0  0  0  0
    2.3521    0.1257    0.2001 C   0  0  0  0  0  0  0  0  0  0  0  0
    2.4176    0.0898    1.5374 N   0  0  0  0  0  0  0  0  0  0  0  0
   -1.0336    0.0000    2.1823 N   0  0  0  0  0  0  0  0  0  0  0  0
   -0.5040    0.0522    3.4030 N   0  0  0  0  0  0  0  0  0  0  0  0
    0.7607    0.0365    3.4043 N   0  0  0  0  0  0  0  0  0  0  0  0
   -1.2070   -0.1189   -0.7815 C   0  0  0  0  0  0  0  0  0  0  0  0
    1.4089    0.1966   -2.1299 C   0  0  0  0  0  0  0  0  0  0  0  0
    1.0130    1.3631   -2.7997 C   0  0  0  0  0  0  0  0  0  0  0  0
    1.9962   -0.8364   -2.8124 C   0  0  0  0  0  0  0  0  0  0  0  0
    1.2717    1.4262   -4.1280 C   0  0  0  0  0  0  0  0  0  0  0  0
    2.1941   -0.7912   -4.2325 C   0  0  0  0  0  0  0  0  0  0  0  0
    1.8778    0.4633   -4.8634 N   0  0  0  0  0  0  0  0  0  0  0  0
    2.6757   -1.7127   -4.8880 O   0  0  0  0  0  0  0  0  0  0  0  0
   -1.6923    1.2374   -1.2908 C   0  0  0  0  0  0  0  0  0  0  0  0
   -1.0496    2.2430   -1.2420 O   0  0  0  0  0  0  0  0  0  0  0  0
   -2.8868    1.1011   -1.8274 O   0  0  0  0  0  0  0  0  0  0  0  0
    2.0851    0.5563   -6.2882 C   0  0  0  0  0  0  0  0  0  0  0  0
    0.7981    0.9822   -6.9739 C   0  0  0  0  0  0  0  0  0  0  0  0
    0.8086    1.7371   -7.9171 O   0  0  0  0  0  0  0  0  0  0  0  0
   -0.4464    0.4361   -6.3762 C   0  0  0  0  0  0  0  0  0  0  0  0
   -1.5304    1.2969   -6.3022 C   0  0  0  0  0  0  0  0  0  0  0  0
   -0.5293   -0.8670   -5.8651 C   0  0  0  0  0  0  0  0  0  0  0  0
   -2.6851    0.8519   -5.7136 C   0  0  0  0  0  0  0  0  0  0  0  0
   -1.7055   -1.3187   -5.2683 C   0  0  0  0  0  0  0  0  0  0  0  0
   -2.8463   -0.4322   -5.1741 C   0  0  0  0  0  0  0  0  0  0  0  0
   -1.7690   -2.9582   -4.7106 Cl  0  0  0  0  0  0  0  0  0  0  0  0
   -3.7071    1.7482   -5.6201 F   0  0  0  0  0  0  0  0  0  0  0  0
  1  2  1  0
  1  4  1  0
  1 10  1  0
  2  3  1  0
  2  7  2  0
  3  6  2  0
  3  9  1  0
  4  5  2  0
  4 11  1  0
  5  6  1  0
  7  8  1  0
  8  9  2  0
 10 18  1  0
 11 12  1  0
 11 13  2  0
 12 14  2  0
 13 15  1  0
 14 16  1  0
 15 16  1  0
 15 17  2  0
 16 21  1  0
 18 19  2  0
 18 20  1  0
 21 22  1  0
 22 23  2  0
 22 24  1  0
 24 25  2  0
 24 26  1  0
 25 27  1  0
 26 28  2  0
 27 29  2  0
 27 31  1  0
 28 29  1  0
 28 30  1  0
M  END

$$$$

     RDKit          3D

 30 32  0  0  0  0  0  0  0  0999 V2000
    0.0000    0.0000    0.0000 N   0  0  0  0  0  0  0  0  0  0  0  0
    0.0000    0.0000    1.3241 C   0  0  0  0  0  0  0  0  0  0  0  0
    1.1824    0.0000    2.0777 C   0  0  0  0  0  0  0  0  0  0  0  0
    1.1839    0.1756   -0.5486 C   0  0  0  0  0  0  0  0  0  0  0  0
    2.4051    0.1756    0.1565 C   0  0  0  0  0  0  0  0  0  0  0  0
    2.4748    0.1142    1.4927 N   0  0  0  0  0  0  0  0  0  0  0  0
   -1.2268    0.0000    2.1146 C   0  0  0  0  0  0  0  0  0  0  0  0
   -1.1759    0.0509    3.5230 C   0  0  0  0  0  0  0  0  0  0  0  0
   -2.5145   -0.0633    1.5237 C   0  0  0  0  0  0  0  0  0  0  0  0
    0.0643    0.0989    4.0851 N   0  0  0  0  0  0  0  0  0  0  0  0
   -2.3202    0.1032    4.3176 C   0  0  0  0  0  0  0  0  0  0  0  0
   -3.6046   -0.0024    2.3778 C   0  0  0  0  0  0  0  0  0  0  0  0
    1.3294    0.1077    3.5186 C   0  0  0  0  0  0  0  0  0  0  0  0
   -3.5490    0.1631    3.6618 C   0  0  0  0  0  0  0  0  0  0  0  0
    2.3753    0.1998    4.1164 O   0  0  0  0  0  0  0  0  0  0  0  0
    1.2210    0.3241   -2.0426 C   0  0  0  0  0  0  0  0  0  0  0  0
    0.9441   -0.5783   -2.8077 O   0  0  0  0  0  0  0  0  0  0  0  0
   -4.6916    0.2648    4.3972 O   0  0  0  0  0  0  0  0  0  0  0  0
   -2.7254   -0.2031    0.0346 C   0  0  0  0  0  0  0  0  0  0  0  0
   -4.7079    0.3140    5.8064 C   0  0  0  0  0  0  0  0  0  0  0  0
   -4.0836    1.6157    6.3580 C   0  0  0  0  0  0  0  0  0  0  0  0
   -3.5592    1.6420    7.4384 O   0  0  0  0  0  0  0  0  0  0  0  0
    0.0655    0.0978    5.5446 C   0  0  0  0  0  0  0  0  0  0  0  0
   -2.1863   -1.3133   -0.4857 F   0  0  0  0  0  0  0  0  0  0  0  0
   -3.9950   -0.2977   -0.3293 F   0  0  0  0  0  0  0  0  0  0  0  0
   -2.2738    0.8384   -0.6616 F   0  0  0  0  0  0  0  0  0  0  0  0
   -4.1748    2.8137    5.4283 C   0  0  0  0  0  0  0  0  0  0  0  0
   -4.0514    4.1151    6.2021 C   0  0  0  0  0  0  0  0  0  0  0  0
   -1.0922    0.8363    6.1944 C   0  0  0  0  0  0  0  0  0  0  0  0
   -0.8693    1.8088    7.0879 C   0  0  0  0  0  0  0  0  0  0  0  0
  1  2  2  0
  1  4  1  0
  2  3  1  0
  2  7  1  0
  3  6  2  0
  3 13  1  0
  4  5  2  0
  4 16  1  0
  5  6  1  0
  7  8  2  0
  7  9  1  0
  8 10  1  0
  8 11  1  0
  9 12  2  0
  9 19  1  0
 10 13  1  0
 10 23  1  0
 11 14  2  0
 12 14  1  0
 13 15  2  0
 14 18  1  0
 16 17  2  0
 18 20  1  0
 19 24  1  0
 19 25  1  0
 19 26  1  0
 20 21  1  0
 21 22  2  0
 21 27  1  0
 23 29  1  0
 27 28  1  0
 29 30  2  0
M  END

$$$$

     RDKit          3D

 22 23  0  0  0  0  0  0  0  0999 V2000
    0.0000    0.0000    0.0000 C   0  0  0  0  0  0  0  0  0  0  0  0
    0.0000    0.0000    1.4102 N   0  0  0  0  0  0  0  0  0  0  0  0
    1.3006    0.0000    1.8661 C   0  0  0  0  0  0  0  0  0  0  0  0
    1.0619    0.0522   -0.7636 C   0  0  0  0  0  0  0  0  0  0  0  0
    2.3175    0.0522   -0.3197 N   0  0  0  0  0  0  0  0  0  0  0  0
    2.4569   -0.0675    1.0542 C   0  0  0  0  0  0  0  0  0  0  0  0
    1.6760   -0.0595    3.3191 C   0  0  0  0  0  0  0  0  0  0  0  0
   -1.2416    0.0000    1.9124 N   0  0  0  0  0  0  0  0  0  0  0  0
   -1.3573    0.0479    3.1351 O   0  0  0  0  0  0  0  0  0  0  0  0
    3.3910    0.0569   -1.2589 C   0  0  0  0  0  0  0  0  0  0  0  0
    3.2799   -0.8121   -2.3229 C   0  0  0  0  0  0  0  0  0  0  0  0
    4.4547    0.9518   -1.1524 C   0  0  0  0  0  0  0  0  0  0  0  0
    4.2583   -0.8075   -3.2712 C   0  0  0  0  0  0  0  0  0  0  0  0
    5.4616    0.9516   -2.1282 C   0  0  0  0  0  0  0  0  0  0  0  0
    5.3765    0.0244   -3.2398 C   0  0  0  0  0  0  0  0  0  0  0  0
    4.3921    1.8314   -0.0727 O   0  0  0  0  0  0  0  0  0  0  0  0
    3.7696   -0.1467    1.7435 C   0  0  0  0  0  0  0  0  0  0  0  0
    4.2194    3.1728   -0.4424 C   0  0  0  0  0  0  0  0  0  0  0  0
    3.3445   -0.6512    3.1216 C   0  0  0  0  0  0  0  0  0  0  0  0
    6.3435   -0.0398   -4.1753 N   0  0  0  0  0  0  0  0  0  0  0  0
    6.5825    1.6977   -2.1659 O   0  0  0  0  0  0  0  0  0  0  0  0
    6.6500    2.9345   -1.5088 C   0  0  0  0  0  0  0  0  0  0  0  0
  1  2  1  0
  1  4  2  0
  2  3  1  0
  2  8  1  0
  3  6  2  0
  3  7  1  0
  4  5  1  0
  5  6  1  0
  5 10  1  0
  6 17  1  0
  8  9  2  0
 10 11  2  0
 10 12  1  0
 11 13  1  0
 12 14  2  0
 12 16  1  0
 13 15  2  0
 14 15  1  0
 14 21  1  0
 15 20  1  0
 16 18  1  0
 17 19  1  0
 21 22  1  0
M  END

$$$$

     RDKit          3D

 31 36  0  0  0  0  0  0  0  0999 V2000
    0.0000    0.0000    0.0000 C   0  0  0  0  0  0  0  0  0  0  0  0
    0.0000    0.0000    1.2794 N   0  0  0  0  0  0  0  0  0  0  0  0
    1.2046    0.0000    1.8647 C   0  0  0  0  0  0  0  0  0  0  0  0
    1.1258   -0.0553   -0.6508 C   0  0  0  0  0  0  0  0  0  0  0  0
    2.4115   -0.2460   -0.1250 N   0  0  0  0  0  0  0  0  0  0  0  0
    2.3492   -0.1520    1.2019 C   0  0  0  0  0  0  0  0  0  0  0  0
    3.3395   -0.2143    2.1016 N   0  0  0  0  0  0  0  0  0  0  0  0
    2.8045   -0.1219    3.3428 N   0  0  0  0  0  0  0  0  0  0  0  0
    1.4292   -0.0515    3.1848 C   0  0  0  0  0  0  0  0  0  0  0  0
    3.5745   -0.0992    4.5048 C   0  0  0  0  0  0  0  0  0  0  0  0
    0.6854   -0.0076    4.2520 N   0  0  0  0  0  0  0  0  0  0  0  0
    2.7047   -0.0528    5.6241 C   0  0  0  0  0  0  0  0  0  0  0  0
    4.7852   -0.1641    4.4235 O   0  0  0  0  0  0  0  0  0  0  0  0
    1.2807   -0.0325    5.4600 C   0  0  0  0  0  0  0  0  0  0  0  0
    0.3827   -0.1993    6.6306 C   0  0  0  0  0  0  0  0  0  0  0  0
    0.2925   -2.0408    6.9862 S   0  0  0  0  0  0  0  0  0  0  0  0
    0.0315   -2.5375    5.3255 C   0  0  0  0  0  0  0  0  0  0  0  0
   -1.0510   -2.3435    4.6155 N   0  0  0  0  0  0  0  0  0  0  0  0
    1.0171   -3.0375    4.5020 N   0  0  0  0  0  0  0  0  0  0  0  0
   -0.8578   -2.6131    3.3337 N   0  0  0  0  0  0  0  0  0  0  0  0
    2.3443   -3.4525    4.6014 C   0  0  0  0  0  0  0  0  0  0  0  0
    0.3412   -3.0078    3.2830 C   0  0  0  0  0  0  0  0  0  0  0  0
    2.9709   -3.6110    5.8366 C   0  0  0  0  0  0  0  0  0  0  0  0
    3.0444   -3.7602    3.4166 C   0  0  0  0  0  0  0  0  0  0  0  0
    1.0614   -3.4085    2.1387 C   0  0  0  0  0  0  0  0  0  0  0  0
    4.3153   -3.9786    5.8030 C   0  0  0  0  0  0  0  0  0  0  0  0
    4.3952   -4.1333    3.4627 C   0  0  0  0  0  0  0  0  0  0  0  0
    2.3341   -3.7452    2.1892 C   0  0  0  0  0  0  0  0  0  0  0  0
    5.0037   -4.2388    4.6470 C   0  0  0  0  0  0  0  0  0  0  0  0
    3.1213   -0.0758    7.0758 C   0  0  0  0  0  0  0  0  0  0  0  0
    3.4021   -0.6907   -1.0752 C   0  0  0  0  0  0  0  0  0  0  0  0
  1  2  1  0
  1  4  2  0
  2  3  2  0
  3  6  1  0
  3  9  1  0
  4  5  1  0
  5  6  1  0
  5 31  1  0
  6  7  2  0
  7  8  1  0
  8  9  1  0
  8 10  1  0
  9 11  2  0
 10 12  1  0
 10 13  2  0
 11 14  1  0
 12 14  2  0
 12 30  1  0
 14 15  1  0
 15 16  1  0
 16 17  1  0
 17 18  2  0
 17 19  1  0
 18 20  1  0
 19 21  1  0
 19 22  1  0
 20 22  2  0
 21 23  2  0
 21 24  1  0
 22 25  1  0
 23 26  1  0
 24 27  2  0
 24 28  1  0
 25 28  2  0
 26 29  2  0
 27 29  1  0
M  END

$$$$

     RDKit          3D

 28 32  0  0  0  0  0  0  0  0999 V2000
    0.0000    0.0000    0.0000 C   0  0  0  0  0  0  0  0  0  0  0  0
    0.0000    0.0000    1.4511 C   0  0  0  0  0  0  0  0  0  0  0  0
    1.1792    0.0000    2.1493 N   0  0  0  0  0  0  0  0  0  0  0  0
    1.0559   -0.0519   -0.7592 N   0  0  0  0  0  0  0  0  0  0  0  0
    2.2197   -0.1090   -0.0084 C   0  0  0  0  0  0  0  0  0  0  0  0
    2.2898   -0.1125    1.3839 C   0  0  0  0  0  0  0  0  0  0  0  0
    3.3876   -0.1158   -0.7842 C   0  0  0  0  0  0  0  0  0  0  0  0
    3.4904   -0.2221    2.0999 C   0  0  0  0  0  0  0  0  0  0  0  0
    4.5554   -0.2204   -0.0900 C   0  0  0  0  0  0  0  0  0  0  0  0
    4.6533   -0.2723    1.3472 C   0  0  0  0  0  0  0  0  0  0  0  0
   -0.9801   -0.0481    2.3288 N   0  0  0  0  0  0  0  0  0  0  0  0
   -0.3853   -0.0709    3.5201 N   0  0  0  0  0  0  0  0  0  0  0  0
    0.8847   -0.0887    3.4490 N   0  0  0  0  0  0  0  0  0  0  0  0
    5.8832   -0.3255    1.9312 O   0  0  0  0  0  0  0  0  0  0  0  0
    6.0833   -0.3976    3.3335 C   0  0  0  0  0  0  0  0  0  0  0  0
   -1.2371    0.0608   -0.5677 N   0  0  0  0  0  0  0  0  0  0  0  0
   -1.6522    0.1363   -1.8965 C   0  0  0  0  0  0  0  0  0  0  0  0
   -2.7574    0.6188   -2.0451 O   0  0  0  0  0  0  0  0  0  0  0  0
   -0.7922   -0.3042   -2.9569 C   0  0  0  0  0  0  0  0  0  0  0  0
   -0.7927    0.0467   -4.3061 C   0  0  0  0  0  0  0  0  0  0  0  0
    0.1585   -1.1989   -2.7867 O   0  0  0  0  0  0  0  0  0  0  0  0
   -1.5811    0.9773   -5.0140 C   0  0  0  0  0  0  0  0  0  0  0  0
    0.2263   -0.7177   -4.9110 C   0  0  0  0  0  0  0  0  0  0  0  0
    0.7332   -1.4269   -3.9490 N   0  0  0  0  0  0  0  0  0  0  0  0
   -1.1990    1.0249   -6.3049 C   0  0  0  0  0  0  0  0  0  0  0  0
    0.6569   -0.5850   -6.5639 S   0  0  0  0  0  0  0  0  0  0  0  0
   -0.1334    0.3444   -6.9653 C   0  0  0  0  0  0  0  0  0  0  0  0
    0.2677    0.3918   -8.1040 O   0  0  0  0  0  0  0  0  0  0  0  0
  1  2  1  0
  1  4  2  0
  1 16  1  0
  2  3  1  0
  2 11  2  0
  3  6  1  0
  3 13  1  0
  4  5  1  0
  5  6  2  0
  5  7  1  0
  6  8  1  0
  7  9  2  0
  8 10  2  0
  9 10  1  0
 10 14  1  0
 11 12  1  0
 12 13  2  0
 14 15  1  0
 16 17  1  0
 17 18  2  0
 17 19  1  0
 19 20  1  0
 19 21  1  0
 20 22  1  0
 20 23  1  0
 21 24  1  0
 22 25  2  0
 23 24  2  0
 23 26  1  0
 25 27  1  0
 26 27  1  0
 27 28  2  0
M  END

$$$$

     RDKit          3D

 28 30  0  0  0  0  0  0  0  0999 V2000
    0.0000    0.0000    0.0000 C   0  0  0  0  0  0  0  0  0  0  0  0
    0.0000    0.0000    1.4428 C   0  0  0  0  0  0  0  0  0  0  0  0
    1.2156    0.0000    2.0584 N   0  0  0  0  0  0  0  0  0  0  0  0
    1.0826    0.1066   -0.7010 N   0  0  0  0  0  0  0  0  0  0  0  0
    2.2816    0.1655   -0.0079 C   0  0  0  0  0  0  0  0  0  0  0  0
    2.2862    0.1110    1.3535 C   0  0  0  0  0  0  0  0  0  0  0  0
   -1.3201    0.0649    2.3920 S   0  0  0  0  0  0  0  0  0  0  0  0
    3.5333    0.2334   -0.7553 C   0  0  0  0  0  0  0  0  0  0  0  0
    4.7833   -0.0945   -0.2324 C   0  0  0  0  0  0  0  0  0  0  0  0
    3.4771    0.6413   -2.0789 C   0  0  0  0  0  0  0  0  0  0  0  0
    5.9452    0.0324   -0.9628 C   0  0  0  0  0  0  0  0  0  0  0  0
    4.6521    0.7694   -2.8182 C   0  0  0  0  0  0  0  0  0  0  0  0
    5.9047    0.5027   -2.2745 C   0  0  0  0  0  0  0  0  0  0  0  0
    7.1207    0.6340   -2.8750 O   0  0  0  0  0  0  0  0  0  0  0  0
   -1.2250    0.0000   -0.6317 N   0  0  0  0  0  0  0  0  0  0  0  0
   -1.5744   -0.4258   -1.8951 C   0  0  0  0  0  0  0  0  0  0  0  0
   -2.6763   -0.1373   -2.3378 O   0  0  0  0  0  0  0  0  0  0  0  0
   -0.6338   -1.2812   -2.6454 C   0  0  0  0  0  0  0  0  0  0  0  0
   -0.4427   -1.0599   -4.0085 C   0  0  0  0  0  0  0  0  0  0  0  0
    0.0616   -2.2881   -1.9943 C   0  0  0  0  0  0  0  0  0  0  0  0
    0.3920   -1.8683   -4.7643 C   0  0  0  0  0  0  0  0  0  0  0  0
    0.9008   -3.1018   -2.7541 C   0  0  0  0  0  0  0  0  0  0  0  0
    1.0215   -2.9102   -4.0684 C   0  0  0  0  0  0  0  0  0  0  0  0
   -0.0825   -2.4509   -0.6413 O   0  0  0  0  0  0  0  0  0  0  0  0
    0.4975   -3.5379    0.0446 C   0  0  0  0  0  0  0  0  0  0  0  0
    7.1273    1.0611   -4.2274 C   0  0  0  0  0  0  0  0  0  0  0  0
    0.6154   -1.7860   -6.0979 O   0  0  0  0  0  0  0  0  0  0  0  0
   -0.0972   -0.8302   -6.8359 C   0  0  0  0  0  0  0  0  0  0  0  0
  1  2  2  0
  1  4  1  0
  1 15  1  0
  2  3  1  0
  2  7  1  0
  3  6  2  0
  4  5  2  0
  5  6  1  0
  5  8  1  0
  8  9  2  0
  8 10  1  0
  9 11  1  0
 10 12  2  0
 11 13  2  0
 12 13  1  0
 13 14  1  0
 14 26  1  0
 15 16  1  0
 16 17  2  0
 16 18  1  0
 18 19  2  0
 18 20  1  0
 19 21  1  0
 20 22  2  0
 20 24  1  0
 21 23  2  0
 21 27  1  0
 22 23  1  0
 24 25  1  0
 27 28  1  0
M  END

$$$$

     RDKit          3D

 18 19  0  0  0  0  0  0  0  0999 V2000
    0.0000    0.0000    0.0000 N   0  0  0  0  0  0  0  0  0  0  0  0
    0.0000    0.0000    1.3782 C   0  0  0  0  0  0  0  0  0  0  0  0
    1.1960    0.0000    2.1405 C   0  0  0  0  0  0  0  0  0  0  0  0
    1.1704    0.1736   -0.5423 C   0  0  0  0  0  0  0  0  0  0  0  0
    2.3543    0.2318    0.2215 C   0  0  0  0  0  0  0  0  0  0  0  0
    2.3046    0.0994    1.6409 N   0  0  0  0  0  0  0  0  0  0  0  0
   -1.1440   -0.0562    2.2008 C   0  0  0  0  0  0  0  0  0  0  0  0
   -0.8295   -0.1975    3.5190 C   0  0  0  0  0  0  0  0  0  0  0  0
    0.8780   -0.3296    3.7842 S   0  0  0  0  0  0  0  0  0  0  0  0
    3.5417    0.3641   -0.3838 N   0  0  0  0  0  0  0  0  0  0  0  0
    4.5681    0.4569    0.3370 O   0  0  0  0  0  0  0  0  0  0  0  0
   -1.7793   -0.3487    4.6501 C   0  0  0  0  0  0  0  0  0  0  0  0
    1.2074    0.3213   -2.0278 N   0  0  0  0  0  0  0  0  0  0  0  0
   -3.0379   -1.1294    4.2745 C   0  0  0  0  0  0  0  0  0  0  0  0
   -3.9734   -0.3263    3.3427 C   0  0  0  0  0  0  0  0  0  0  0  0
   -3.3173    0.5235    2.2432 C   0  0  0  0  0  0  0  0  0  0  0  0
   -0.0371    0.8414   -2.6279 C   0  0  0  0  0  0  0  0  0  0  0  0
    1.5586   -0.9414   -2.7073 C   0  0  0  0  0  0  0  0  0  0  0  0
  1  2  1  0
  1  4  2  0
  2  3  1  0
  2  7  1  0
  3  6  2  0
  3  9  1  0
  4  5  1  0
  4 13  1  0
  5  6  1  0
  5 10  1  0
  7  8  2  0
  8  9  1  0
  8 12  1  0
 10 11  2  0
 12 14  1  0
 13 17  1  0
 13 18  1  0
 14 15  1  0
 15 16  1  0
M  END

$$$$

     RDKit          3D

  7  7  0  0  0  0  0  0  0  0999 V2000
    0.0000    0.0000    0.0000 C   0  0  0  0  0  0  0  0  0  0  0  0
    0.0000    0.0000    1.3393 C   0  0  0  0  0  0  0  0  0  0  0  0
    1.0859    0.0000    2.1365 N   0  0  0  0  0  0  0  0  0  0  0  0
    1.1853   -0.0582   -0.6852 N   0  0  0  0  0  0  0  0  0  0  0  0
    2.2365   -0.0582    0.0697 C   0  0  0  0  0  0  0  0  0  0  0  0
    2.2361   -0.0645    1.4322 C   0  0  0  0  0  0  0  0  0  0  0  0
    3.5696    0.0211   -0.6360 N   0  0  0  0  0  0  0  0  0  0  0  0
  1  2  2  0
  1  4  1  0
  2  3  1  0
  3  6  2  0
  4  5  2  0
  5  6  1  0
  5  7  1  0
M  END

$$$$

     RDKit          3D

 31 34  0  0  0  0  0  0  0  0999 V2000
    0.0000    0.0000    0.0000 C   0  0  0  0  0  0  0  0  0  0  0  0
    0.0000    0.0000    1.3782 N   0  0  0  0  0  0  0  0  0  0  0  0
    1.2086    0.0000    1.9903 C   0  0  0  0  0  0  0  0  0  0  0  0
    1.2320    0.0000   -0.6353 C   0  0  0  0  0  0  0  0  0  0  0  0
    2.4248    0.0000   -0.1528 N   0  0  0  0  0  0  0  0  0  0  0  0
    2.3568    0.0603    1.2626 C   0  0  0  0  0  0  0  0  0  0  0  0
    3.4091    0.1268    2.0383 N   0  0  0  0  0  0  0  0  0  0  0  0
    2.7546    0.2103    3.2039 N   0  0  0  0  0  0  0  0  0  0  0  0
    1.4479    0.1552    3.2583 C   0  0  0  0  0  0  0  0  0  0  0  0
    1.1691   -0.0629   -2.3760 Cl  0  0  0  0  0  0  0  0  0  0  0  0
   -1.2624   -0.0620    2.1080 C   0  0  0  0  0  0  0  0  0  0  0  0
   -2.3883   -0.0620    1.2994 O   0  0  0  0  0  0  0  0  0  0  0  0
   -3.0660    1.1653    1.2829 C   0  0  0  0  0  0  0  0  0  0  0  0
   -1.2320    0.0000   -0.6353 N   0  0  0  0  0  0  0  0  0  0  0  0
   -1.5833    0.7124   -1.7424 C   0  0  0  0  0  0  0  0  0  0  0  0
   -2.2521   -0.7565   -0.1863 N   0  0  0  0  0  0  0  0  0  0  0  0
   -2.8799    0.3128   -1.9845 C   0  0  0  0  0  0  0  0  0  0  0  0
   -3.2721   -0.5763   -1.0353 C   0  0  0  0  0  0  0  0  0  0  0  0
   -3.6724    0.9107   -3.1000 C   0  0  0  0  0  0  0  0  0  0  0  0
   -0.8822    1.7180   -2.5650 C   0  0  0  0  0  0  0  0  0  0  0  0
   -2.7987    1.7262   -4.0518 C   0  0  0  0  0  0  0  0  0  0  0  0
   -2.1808    2.2686    0.7052 C   0  0  0  0  0  0  0  0  0  0  0  0
   -1.1901    2.0635    0.0575 O   0  0  0  0  0  0  0  0  0  0  0  0
   -4.4251   -0.1512   -3.7226 N   0  0  0  0  0  0  0  0  0  0  0  0
   -2.6140    3.4838    1.0353 O   0  0  0  0  0  0  0  0  0  0  0  0
   -1.8704    2.6132   -3.3109 C   0  0  0  0  0  0  0  0  0  0  0  0
   -5.7454   -0.0155   -3.9940 C   0  0  0  0  0  0  0  0  0  0  0  0
   -6.3740    0.9967   -3.7939 O   0  0  0  0  0  0  0  0  0  0  0  0
   -1.8437    4.5936    0.6037 C   0  0  0  0  0  0  0  0  0  0  0  0
   -6.3437   -1.2413   -4.5806 C   0  0  0  0  0  0  0  0  0  0  0  0
   -7.5621   -1.0771   -5.4432 C   0  0  0  0  0  0  0  0  0  0  0  0
  1  2  1  0
  1  4  2  0
  1 14  1  0
  2  3  1  0
  2 11  1  0
  3  6  1  0
  3  9  2  0
  4  5  1  0
  4 10  1  0
  5  6  2  0
  6  7  1  0
  7  8  2  0
  8  9  1  0
 11 12  1  0
 12 13  1  0
 13 22  1  0
 14 15  1  0
 14 16  1  0
 15 17  2  0
 15 20  1  0
 16 18  2  0
 17 18  1  0
 17 19  1  0
 19 21  1  0
 19 24  1  0
 20 26  1  0
 21 26  1  0
 22 23  2  0
 22 25  1  0
 24 27  1  0
 25 29  1  0
 27 28  2  0
 27 30  1  0
 30 31  1  0
M  END

$$$$

     RDKit          3D

 31 34  0  0  0  0  0  0  0  0999 V2000
    0.0000    0.0000    0.0000 C   0  0  0  0  0  0  0  0  0  0  0  0
    0.0000    0.0000    1.3548 C   0  0  0  0  0  0  0  0  0  0  0  0
    1.0530    0.0000    2.1824 N   0  0  0  0  0  0  0  0  0  0  0  0
    1.2835   -0.1264   -0.6651 N   0  0  0  0  0  0  0  0  0  0  0  0
    2.3096   -0.0760    0.0727 C   0  0  0  0  0  0  0  0  0  0  0  0
    2.3137   -0.0302    1.5314 C   0  0  0  0  0  0  0  0  0  0  0  0
    3.2128   -0.1229    2.4473 N   0  0  0  0  0  0  0  0  0  0  0  0
    2.6224   -0.1612    3.6488 N   0  0  0  0  0  0  0  0  0  0  0  0
    1.2629   -0.1435    3.5594 C   0  0  0  0  0  0  0  0  0  0  0  0
    3.2025   -0.2039    4.9512 C   0  0  0  0  0  0  0  0  0  0  0  0
    0.4644   -0.1216    4.5965 N   0  0  0  0  0  0  0  0  0  0  0  0
    2.2741   -0.1816    6.0340 C   0  0  0  0  0  0  0  0  0  0  0  0
    4.4159   -0.2602    4.9814 O   0  0  0  0  0  0  0  0  0  0  0  0
    1.0114   -0.1159    5.8529 C   0  0  0  0  0  0  0  0  0  0  0  0
   -1.3348    0.0000   -0.6883 C   0  0  0  0  0  0  0  0  0  0  0  0
   -2.3571    0.1007   -0.0264 O   0  0  0  0  0  0  0  0  0  0  0  0
    0.0582   -0.1446    7.0021 C   0  0  0  0  0  0  0  0  0  0  0  0
    3.6557   -0.0608   -0.5735 C   0  0  0  0  0  0  0  0  0  0  0  0
    3.5717    0.0056   -2.0889 C   0  0  0  0  0  0  0  0  0  0  0  0
   -1.2823   -0.1269   -2.0284 N   0  0  0  0  0  0  0  0  0  0  0  0
   -2.5003   -0.0847   -2.8160 C   0  0  0  0  0  0  0  0  0  0  0  0
   -2.6958    1.2606   -3.4543 C   0  0  0  0  0  0  0  0  0  0  0  0
   -3.0897    2.3509   -2.6799 C   0  0  0  0  0  0  0  0  0  0  0  0
   -2.4384    1.5049   -4.8025 C   0  0  0  0  0  0  0  0  0  0  0  0
   -3.2345    3.6214   -3.2151 C   0  0  0  0  0  0  0  0  0  0  0  0
   -2.5859    2.7685   -5.3327 C   0  0  0  0  0  0  0  0  0  0  0  0
   -2.9885    3.8527   -4.5595 C   0  0  0  0  0  0  0  0  0  0  0  0
   -2.3974    3.0381   -6.6231 O   0  0  0  0  0  0  0  0  0  0  0  0
   -3.4200    2.1378   -1.0124 Cl  0  0  0  0  0  0  0  0  0  0  0  0
   -3.1457    5.0331   -5.2055 O   0  0  0  0  0  0  0  0  0  0  0  0
   -3.5413    6.1802   -4.4712 C   0  0  0  0  0  0  0  0  0  0  0  0
  1  2  2  0
  1  4  1  0
  1 15  1  0
  2  3  1  0
  3  6  1  0
  3  9  1  0
  4  5  2  0
  5  6  1  0
  5 18  1  0
  6  7  2  0
  7  8  1  0
  8  9  1  0
  8 10  1  0
  9 11  2  0
 10 12  1  0
 10 13  2  0
 11 14  1  0
 12 14  2  0
 14 17  1  0
 15 16  2  0
 15 20  1  0
 18 19  1  0
 20 21  1  0
 21 22  1  0
 22 23  2  0
 22 24  1  0
 23 25  1  0
 23 29  1  0
 24 26  2  0
 25 27  2  0
 26 27  1  0
 26 28  1  0
 27 30  1  0
 30 31  1  0
M  END

$$$$

     RDKit          3D

 26 27  0  0  0  0  0  0  0  0999 V2000
    0.0000    0.0000    0.0000 N   0  0  0  0  0  0  0  0  0  0  0  0
    0.0000    0.0000    1.4102 C   0  0  0  0  0  0  0  0  0  0  0  0
    1.2154    0.0000    2.0768 C   0  0  0  0  0  0  0  0  0  0  0  0
    1.1818   -0.0581   -0.5423 C   0  0  0  0  0  0  0  0  0  0  0  0
    2.4336   -0.1196    0.1040 C   0  0  0  0  0  0  0  0  0  0  0  0
    2.3680   -0.1163    1.5208 N   0  0  0  0  0  0  0  0  0  0  0  0
   -1.1440   -0.0562    2.2328 C   0  0  0  0  0  0  0  0  0  0  0  0
   -1.0866   -0.1775    3.5424 N   0  0  0  0  0  0  0  0  0  0  0  0
    0.0721   -0.1376    4.1339 N   0  0  0  0  0  0  0  0  0  0  0  0
    1.2401    0.0760    3.5480 C   0  0  0  0  0  0  0  0  0  0  0  0
    1.1302    0.0861   -2.0363 N   0  0  0  0  0  0  0  0  0  0  0  0
    2.4244    0.1573    4.2167 N   0  0  0  0  0  0  0  0  0  0  0  0
    3.7078   -0.2351   -0.3416 N   0  0  0  0  0  0  0  0  0  0  0  0
    3.6915    0.5187    3.6492 C   0  0  0  0  0  0  0  0  0  0  0  0
    2.3758   -0.3084    5.5990 C   0  0  0  0  0  0  0  0  0  0  0  0
    4.3809   -0.8161    3.2504 C   0  0  0  0  0  0  0  0  0  0  0  0
    4.8767   -0.5286    0.4667 C   0  0  0  0  0  0  0  0  0  0  0  0
    4.7607   -2.0208    0.9181 C   0  0  0  0  0  0  0  0  0  0  0  0
    3.9677   -0.0526   -1.7406 C   0  0  0  0  0  0  0  0  0  0  0  0
    3.8404   -1.9926    3.8293 N   0  0  0  0  0  0  0  0  0  0  0  0
    2.8484   -2.0055    4.5668 C   0  0  0  0  0  0  0  0  0  0  0  0
   -2.4175    0.0064    1.5752 N   0  0  0  0  0  0  0  0  0  0  0  0
    3.9685   -2.8390    0.0593 N   0  0  0  0  0  0  0  0  0  0  0  0
   -3.3916   -0.9550    2.1287 C   0  0  0  0  0  0  0  0  0  0  0  0
   -4.1237   -0.3303    3.3266 C   0  0  0  0  0  0  0  0  0  0  0  0
   -4.3262    1.0153    2.9565 O   0  0  0  0  0  0  0  0  0  0  0  0
  1  2  2  0
  1  4  1  0
  2  3  1  0
  2  7  1  0
  3  6  2  0
  3 10  1  0
  4  5  2  0
  4 11  1  0
  5  6  1  0
  5 13  1  0
  7  8  2  0
  7 22  1  0
  8  9  1  0
  9 10  2  0
 10 12  1  0
 12 14  1  0
 12 15  1  0
 13 17  1  0
 13 19  1  0
 14 16  1  0
 16 20  1  0
 17 18  1  0
 18 23  1  0
 20 21  2  0
 22 24  1  0
 24 25  1  0
 25 26  1  0
M  END

$$$$

     RDKit          3D

  8  8  0  0  0  0  0  0  0  0999 V2000
    0.0000    0.0000    0.0000 C   0  0  0  0  0  0  0  0  0  0  0  0
    0.0000    0.0000    1.3548 C   0  0  0  0  0  0  0  0  0  0  0  0
    1.1051    0.0000    2.1384 N   0  0  0  0  0  0  0  0  0  0  0  0
    1.1398    0.1123   -0.7380 N   0  0  0  0  0  0  0  0  0  0  0  0
    2.2326    0.1659    0.0477 C   0  0  0  0  0  0  0  0  0  0  0  0
    2.2369    0.1162    1.4330 C   0  0  0  0  0  0  0  0  0  0  0  0
    1.1812    0.1627   -2.0158 O   0  0  0  0  0  0  0  0  0  0  0  0
    0.9819    0.0511    3.4406 O   0  0  0  0  0  0  0  0  0  0  0  0
  1  2  2  0
  1  4  1  0
  2  3  1  0
  3  6  1  0
  3  8  1  0
  4  5  1  0
  4  7  1  0
  5  6  2  0
M  END

$$$$
