
     RDKit          3D

 21 23  0  0  0  0  0  0  0  0999 V2000
    0.0000   -0.0000   -0.0000 C   0  0  0  0  0  0  0  0  0  0  0  0
    0.0000    0.0000    1.4102 C   0  0  0  0  0  0  0  0  0  0  0  0
    1.1676   -0.0000    2.0506 N   0  0  0  0  0  0  0  0  0  0  0  0
    1.1343    0.1683   -0.6620 N   0  0  0  0  0  0  0  0  0  0  0  0
    2.2886    0.2819    0.0076 C   0  0  0  0  0  0  0  0  0  0  0  0
    2.3033    0.1631    1.4127 C   0  0  0  0  0  0  0  0  0  0  0  0
   -1.2409   -0.0000    2.2098 C   0  0  0  0  0  0  0  0  0  0  0  0
   -2.2889    0.8601    1.9210 C   0  0  0  0  0  0  0  0  0  0  0  0
   -1.2941   -0.8110    3.3425 C   0  0  0  0  0  0  0  0  0  0  0  0
   -3.4015    0.8580    2.7211 C   0  0  0  0  0  0  0  0  0  0  0  0
   -2.4067   -0.8065    4.1425 C   0  0  0  0  0  0  0  0  0  0  0  0
   -3.5450    0.0258    3.8303 C   0  0  0  0  0  0  0  0  0  0  0  0
   -4.6644    0.0243    4.5516 F   0  0  0  0  0  0  0  0  0  0  0  0
    3.4043    0.4986   -0.7009 N   0  0  0  0  0  0  0  0  0  0  0  0
    3.4104    0.4268   -2.1502 C   0  0  0  0  0  0  0  0  0  0  0  0
    3.6716   -0.9616   -2.6339 C   0  0  0  0  0  0  0  0  0  0  0  0
    2.7958   -2.0186   -2.7577 C   0  0  0  0  0  0  0  0  0  0  0  0
    4.9498   -1.5171   -2.8969 C   0  0  0  0  0  0  0  0  0  0  0  0
    3.4761   -3.0908   -3.1836 O   0  0  0  0  0  0  0  0  0  0  0  0
    4.7792   -2.8094   -3.2660 C   0  0  0  0  0  0  0  0  0  0  0  0
    5.7579   -3.8760   -3.5963 C   0  0  0  0  0  0  0  0  0  0  0  0
  2  1  2  0
  3  2  1  0
  4  1  1  0
  5  4  2  0
  6  5  1  0
  6  3  2  0
  7  2  1  0
  8  7  2  0
  9  7  1  0
 10  8  1  0
 11  9  2  0
 12 11  1  0
 12 10  2  0
 13 12  1  0
 14  5  1  0
 15 14  1  0
 16 15  1  0
 17 16  2  0
 18 16  1  0
 19 17  1  0
 20 19  1  0
 20 18  2  0
 21 20  1  0
M  END
>  <SMILES>  (1) 
Cc1cc(CNc2cnc(-c3ccc(F)cc3)cn2)co1

>  <scaffold>  (1) 
pyrazine

$$$$

     RDKit          3D

 40 42  0  0  0  0  0  0  0  0999 V2000
    0.0016   -0.0000    0.0166 C   0  0  0  0  0  0  0  0  0  0  0  0
   -0.0052    0.0014    1.3947 C   0  0  0  0  0  0  0  0  0  0  0  0
    1.1278    0.0011    2.0925 N   0  0  0  0  0  0  0  0  0  0  0  0
    1.1100   -0.0003   -0.7227 N   0  0  0  0  0  0  0  0  0  0  0  0
    2.2196   -0.0002    0.0119 C   0  0  0  0  0  0  0  0  0  0  0  0
    2.2512   -0.0028    1.3960 C   0  0  0  0  0  0  0  0  0  0  0  0
    3.6566   -0.0623   -0.9863 S   0  0  0  0  0  0  0  0  0  0  0  0
    3.1733   -0.0450   -2.7711 C   0  0  0  0  0  0  0  0  0  0  0  0
    2.9431    1.3489   -3.2770 C   0  0  0  0  0  0  0  0  0  0  0  0
    4.0339    2.1206   -3.6820 C   0  0  0  0  0  0  0  0  0  0  0  0
    1.6971    1.9140   -3.3429 C   0  0  0  0  0  0  0  0  0  0  0  0
    3.8908    3.4234   -4.1079 C   0  0  0  0  0  0  0  0  0  0  0  0
    1.5433    3.2305   -3.7725 C   0  0  0  0  0  0  0  0  0  0  0  0
    2.6308    4.0161   -4.1460 C   0  0  0  0  0  0  0  0  0  0  0  0
    2.5435    5.2985   -4.5182 F   0  0  0  0  0  0  0  0  0  0  0  0
    0.2387    3.6665   -3.8460 N   0  0  0  0  0  0  0  0  0  0  0  0
   -0.0928    4.8965   -4.1839 N   0  0  0  0  0  0  0  0  0  0  0  0
   -1.3167    5.2453   -4.2847 C   0  0  0  0  0  0  0  0  0  0  0  0
   -1.5404    6.6399   -4.6074 C   0  0  0  0  0  0  0  0  0  0  0  0
   -2.7931    7.1049   -4.9728 C   0  0  0  0  0  0  0  0  0  0  0  0
   -0.5114    7.5579   -4.5675 C   0  0  0  0  0  0  0  0  0  0  0  0
   -2.9511    8.4420   -5.3248 C   0  0  0  0  0  0  0  0  0  0  0  0
   -0.6575    8.8823   -4.9149 C   0  0  0  0  0  0  0  0  0  0  0  0
   -1.8948    9.3129   -5.2535 C   0  0  0  0  0  0  0  0  0  0  0  0
   -2.4339    4.2640   -4.0316 C   0  0  0  0  0  0  0  0  0  0  0  0
    0.3011    9.8692   -4.9667 O   0  0  0  0  0  0  0  0  0  0  0  0
    1.5973    9.4423   -4.6161 C   0  0  0  0  0  0  0  0  0  0  0  0
    2.4147   10.7292   -4.7033 C   0  0  0  0  0  0  0  0  0  0  0  0
    2.5740   11.3139   -6.1062 C   0  0  0  0  0  0  0  0  0  0  0  0
    3.4326   12.5775   -6.2551 C   0  0  0  0  0  0  0  0  0  0  0  0
    2.8079   13.7791   -5.5501 C   0  0  0  0  0  0  0  0  0  0  0  0
    3.6788   15.0191   -5.7771 C   0  0  0  0  0  0  0  0  0  0  0  0
    3.1105   16.2410   -5.0417 C   0  0  0  0  0  0  0  0  0  0  0  0
    4.0439   17.4296   -5.2537 C   0  0  0  0  0  0  0  0  0  0  0  0
    3.4753   18.6105   -4.5004 C   0  0  0  0  0  0  0  0  0  0  0  0
    4.3799   19.8054   -4.5791 C   0  0  0  0  0  0  0  0  0  0  0  0
    3.7665   20.9820   -3.8322 C   0  0  0  0  0  0  0  0  0  0  0  0
    4.6898   22.1753   -4.0338 C   0  0  0  0  0  0  0  0  0  0  0  0
    3.9717   23.3161   -3.2869 C   0  0  0  0  0  0  0  0  0  0  0  0
    4.8740   24.4884   -3.6182 C   0  0  0  0  0  0  0  0  0  0  0  0
  2  1  1  0
  3  2  1  0
  4  1  1  0
  5  4  1  0
  6  5  2  0
  6  3  1  0
  7  5  1  0
  8  7  1  0
  9  8  1  0
 10  9  2  0
 11  9  1  0
 12 10  1  0
 13 11  2  0
 14 13  1  0
 14 12  2  0
 15 14  1  0
 16 13  1  0
 17 16  1  0
 18 17  2  0
 19 18  1  0
 20 19  2  0
 21 19  1  0
 22 20  1  0
 23 21  2  0
 24 22  2  0
 24 23  1  0
 25 18  1  0
 26 23  1  0
 27 26  1  0
 28 27  1  0
 29 28  1  0
 30 29  1  0
 31 30  1  0
 32 31  1  0
 33 32  1  0
 34 33  1  0
 35 34  1  0
 36 35  1  0
 37 36  1  0
 38 37  1  0
 39 38  1  0
 40 39  1  0
M  END
>  <SMILES>  (2) 
CCCCCCCCCCCCCCOc1cccc(C(C)=NNc2cc(CSC3=CNCCN3)ccc2F)c1

>  <scaffold>  (2) 
pyrazine

$$$$

     RDKit          3D

 27 29  0  0  0  0  0  0  0  0999 V2000
    0.0000    0.0000    0.0000 C   0  0  0  0  0  0  0  0  0  0  0  0
    0.0000    0.0000    1.3782 C   0  0  0  0  0  0  0  0  0  0  0  0
    1.1459   -0.0000    2.0567 N   0  0  0  0  0  0  0  0  0  0  0  0
    1.1130    0.0000   -0.7172 N   0  0  0  0  0  0  0  0  0  0  0  0
    2.2324   -0.0000    0.0041 C   0  0  0  0  0  0  0  0  0  0  0  0
    2.2324   -0.0000    1.4143 C   0  0  0  0  0  0  0  0  0  0  0  0
    3.4005    0.0514   -0.6011 O   0  0  0  0  0  0  0  0  0  0  0  0
    3.5339    0.1070   -1.9877 C   0  0  0  0  0  0  0  0  0  0  0  0
    2.7537   -0.6766   -2.8104 C   0  0  0  0  0  0  0  0  0  0  0  0
    4.4891    0.9577   -2.5218 C   0  0  0  0  0  0  0  0  0  0  0  0
    2.9577   -0.6228   -4.1884 C   0  0  0  0  0  0  0  0  0  0  0  0
    4.6919    1.0099   -3.8921 C   0  0  0  0  0  0  0  0  0  0  0  0
    3.9667    0.1590   -4.7289 C   0  0  0  0  0  0  0  0  0  0  0  0
    2.0739   -1.3217   -4.9685 N   0  0  0  0  0  0  0  0  0  0  0  0
    2.3914   -1.5243   -6.3025 O   0  0  0  0  0  0  0  0  0  0  0  0
    3.2642   -2.5966   -6.5359 C   0  0  0  0  0  0  0  0  0  0  0  0
    3.6183   -3.3358   -5.6671 O   0  0  0  0  0  0  0  0  0  0  0  0
    3.6441   -2.6745   -7.8421 N   0  0  0  0  0  0  0  0  0  0  0  0
    4.5226   -3.5186   -8.5198 C   0  0  0  0  0  0  0  0  0  0  0  0
    5.2244   -4.4557   -7.7778 C   0  0  0  0  0  0  0  0  0  0  0  0
    4.6944   -3.4187   -9.8916 C   0  0  0  0  0  0  0  0  0  0  0  0
    6.1167   -5.2342   -8.4831 C   0  0  0  0  0  0  0  0  0  0  0  0
    5.5869   -4.1971  -10.5967 C   0  0  0  0  0  0  0  0  0  0  0  0
    6.3792   -5.1746   -9.8428 C   0  0  0  0  0  0  0  0  0  0  0  0
    7.2077   -5.9483  -10.5847 O   0  0  0  0  0  0  0  0  0  0  0  0
    7.9587   -6.9235   -9.8800 C   0  0  0  0  0  0  0  0  0  0  0  0
    9.1646   -6.3243   -9.1581 C   0  0  0  0  0  0  0  0  0  0  0  0
  2  1  2  0
  3  2  1  0
  4  1  1  0
  5  4  2  0
  6  5  1  0
  6  3  2  0
  7  5  1  0
  8  7  1  0
  9  8  2  0
 10  8  1  0
 11  9  1  0
 12 10  1  0
 13 12  2  0
 13 11  1  0
 14 11  2  0
 15 14  1  0
 16 15  1  0
 17 16  2  0
 18 16  1  0
 19 18  2  0
 20 19  1  0
 21 19  1  0
 22 20  2  0
 23 21  2  0
 24 23  2  0
 24 22  1  0
 25 24  1  0
 26 25  1  0
 27 26  1  0
M  CHG  2  10  -1  18   1
M  END
>  <SMILES>  (3) 
CCOC1=C=CC(=[NH+]C(=O)ON=c2cc[cH-]c(Oc3cnccn3)c2)C=C1

>  <scaffold>  (3) 
pyrazine

$$$$

     RDKit          3D

 20 21  0  0  0  0  0  0  0  0999 V2000
   -0.0000    0.0000    0.0000 C   0  0  0  0  0  0  0  0  0  0  0  0
    0.0000   -0.0000    1.4021 C   0  0  0  0  0  0  0  0  0  0  0  0
    1.1459    0.0000    2.0806 N   0  0  0  0  0  0  0  0  0  0  0  0
    1.1067    0.0000   -0.7131 N   0  0  0  0  0  0  0  0  0  0  0  0
    2.2325   -0.0000    0.0124 C   0  0  0  0  0  0  0  0  0  0  0  0
    2.2325    0.0000    1.4065 C   0  0  0  0  0  0  0  0  0  0  0  0
    3.3765   -0.0480   -0.6677 O   0  0  0  0  0  0  0  0  0  0  0  0
    3.3760   -0.0958   -2.0770 C   0  0  0  0  0  0  0  0  0  0  0  0
   -1.1453   -0.0000    2.1402 N   0  0  0  0  0  0  0  0  0  0  0  0
   -2.3614   -0.0597    1.5821 N   0  0  0  0  0  0  0  0  0  0  0  0
   -3.4118   -0.0112    2.3109 C   0  0  0  0  0  0  0  0  0  0  0  0
   -4.6447   -0.1497    1.5107 C   0  0  0  0  0  0  0  0  0  0  0  0
   -4.6758   -0.8117    0.2933 C   0  0  0  0  0  0  0  0  0  0  0  0
   -5.8248    0.3400    2.0684 C   0  0  0  0  0  0  0  0  0  0  0  0
   -5.8024   -0.9247   -0.5201 C   0  0  0  0  0  0  0  0  0  0  0  0
   -6.9462    0.2326    1.2607 C   0  0  0  0  0  0  0  0  0  0  0  0
   -6.9255   -0.2693   -0.0631 C   0  0  0  0  0  0  0  0  0  0  0  0
   -3.4837    0.1116    3.8060 C   0  0  0  0  0  0  0  0  0  0  0  0
   -8.1403    0.7217    1.6733 O   0  0  0  0  0  0  0  0  0  0  0  0
   -8.3023    1.3542    2.9232 C   0  0  0  0  0  0  0  0  0  0  0  0
  2  1  2  0
  3  2  1  0
  4  1  1  0
  5  4  2  0
  6  5  1  0
  6  3  2  0
  7  5  1  0
  8  7  1  0
  9  2  1  0
 10  9  1  0
 11 10  2  0
 12 11  1  0
 13 12  2  0
 14 12  1  0
 15 13  1  0
 16 14  2  0
 17 16  1  0
 17 15  2  0
 18 11  1  0
 19 16  1  0
 20 19  1  0
M  END
>  <SMILES>  (4) 
COc1cccc(C(C)=NNc2cnc(OC)cn2)c1

>  <scaffold>  (4) 
pyrazine

$$$$

     RDKit          3D

 21 23  0  0  0  0  0  0  0  0999 V2000
   -0.0000   -0.0000   -0.0000 C   0  0  0  0  0  0  0  0  0  0  0  0
   -0.0000   -0.0000    1.3862 C   0  0  0  0  0  0  0  0  0  0  0  0
    1.1346   -0.0000    2.0834 N   0  0  0  0  0  0  0  0  0  0  0  0
    1.1130   -0.0000   -0.7172 N   0  0  0  0  0  0  0  0  0  0  0  0
    2.2324   -0.0000    0.0041 C   0  0  0  0  0  0  0  0  0  0  0  0
    2.2324    0.0000    1.4062 C   0  0  0  0  0  0  0  0  0  0  0  0
    3.7211    0.0625   -0.8808 S   0  0  0  0  0  0  0  0  0  0  0  0
    3.2355    0.0432   -2.6504 C   0  0  0  0  0  0  0  0  0  0  0  0
    4.3279   -0.5599   -3.4861 C   0  0  0  0  0  0  0  0  0  0  0  0
    4.9898    0.2786   -4.2426 N   0  0  0  0  0  0  0  0  0  0  0  0
    4.6283   -1.9202   -3.4332 C   0  0  0  0  0  0  0  0  0  0  0  0
    5.9930   -0.2019   -4.9609 C   0  0  0  0  0  0  0  0  0  0  0  0
    5.6601   -2.4139   -4.1736 C   0  0  0  0  0  0  0  0  0  0  0  0
    6.4014   -1.5348   -4.9753 C   0  0  0  0  0  0  0  0  0  0  0  0
    7.4043   -2.0889   -5.7412 N   0  0  0  0  0  0  0  0  0  0  0  0
    8.2774   -1.4474   -6.6185 C   0  0  0  0  0  0  0  0  0  0  0  0
    8.9018   -0.2359   -6.3655 C   0  0  0  0  0  0  0  0  0  0  0  0
    8.6204   -2.1669   -7.7623 C   0  0  0  0  0  0  0  0  0  0  0  0
    9.8016    0.3397   -7.2490 C   0  0  0  0  0  0  0  0  0  0  0  0
    9.5301   -1.5861   -8.6448 C   0  0  0  0  0  0  0  0  0  0  0  0
   10.1104   -0.3698   -8.3895 C   0  0  0  0  0  0  0  0  0  0  0  0
  2  1  2  0
  3  2  1  0
  4  1  1  0
  5  4  2  0
  6  5  1  0
  6  3  2  0
  7  5  1  0
  8  7  1  0
  9  8  1  0
 10  9  2  0
 11  9  1  0
 12 10  1  0
 13 11  2  0
 14 13  1  0
 14 12  2  0
 15 14  1  0
 16 15  1  0
 17 16  2  0
 18 16  1  0
 19 17  1  0
 20 18  2  0
 21 20  1  0
 21 19  2  0
M  END
>  <SMILES>  (5) 
c1ccc(Nc2ccc(CSc3cnccn3)nc2)cc1

>  <scaffold>  (5) 
pyrazine

$$$$

     RDKit          3D

 29 31  0  0  0  0  0  0  0  0999 V2000
    0.0000   -0.0000   -0.0000 C   0  0  0  0  0  0  0  0  0  0  0  0
    0.0000   -0.0000    1.3862 C   0  0  0  0  0  0  0  0  0  0  0  0
    1.1346   -0.0000    2.0834 N   0  0  0  0  0  0  0  0  0  0  0  0
    1.1453    0.0563   -0.6620 N   0  0  0  0  0  0  0  0  0  0  0  0
    2.2634    0.1112    0.0593 C   0  0  0  0  0  0  0  0  0  0  0  0
    2.1950    0.1078    1.4597 C   0  0  0  0  0  0  0  0  0  0  0  0
    3.3744    0.1126   -0.7296 O   0  0  0  0  0  0  0  0  0  0  0  0
    4.4862    0.7742   -0.3279 C   0  0  0  0  0  0  0  0  0  0  0  0
    4.5430    1.5225    0.6278 O   0  0  0  0  0  0  0  0  0  0  0  0
    5.5874    0.5009   -1.2460 C   0  0  0  0  0  0  0  0  0  0  0  0
    6.8048    1.0928   -1.0913 C   0  0  0  0  0  0  0  0  0  0  0  0
    5.5584   -0.3279   -2.4065 C   0  0  0  0  0  0  0  0  0  0  0  0
    7.9206    0.6672   -2.3334 S   0  0  0  0  0  0  0  0  0  0  0  0
    6.7131   -0.3759   -3.1282 C   0  0  0  0  0  0  0  0  0  0  0  0
    7.0645   -1.0008   -4.3145 N   0  0  0  0  0  0  0  0  0  0  0  0
    6.1682   -1.7073   -5.0588 C   0  0  0  0  0  0  0  0  0  0  0  0
    5.0007   -1.9267   -4.8797 O   0  0  0  0  0  0  0  0  0  0  0  0
    6.8813   -2.1948   -6.0823 O   0  0  0  0  0  0  0  0  0  0  0  0
    6.1223   -3.0176   -6.9531 C   0  0  0  0  0  0  0  0  0  0  0  0
    6.4401   -4.4720   -6.6978 C   0  0  0  0  0  0  0  0  0  0  0  0
    7.3845   -4.9154   -5.7850 C   0  0  0  0  0  0  0  0  0  0  0  0
    5.7130   -5.3856   -7.4594 C   0  0  0  0  0  0  0  0  0  0  0  0
    7.6768   -6.2603   -5.6207 C   0  0  0  0  0  0  0  0  0  0  0  0
    6.0057   -6.7305   -7.2951 C   0  0  0  0  0  0  0  0  0  0  0  0
    6.9482   -7.1757   -6.3641 C   0  0  0  0  0  0  0  0  0  0  0  0
    7.3440   -9.0177   -6.2361 Br  0  0  0  0  0  0  0  0  0  0  0  0
    5.2329   -7.6694   -8.1765 C   0  0  0  0  0  0  0  0  0  0  0  0
    5.9569   -7.9354   -9.4953 C   0  0  0  0  0  0  0  0  0  0  0  0
    5.3293   -9.0508  -10.3298 C   0  0  0  0  0  0  0  0  0  0  0  0
  2  1  2  0
  3  2  1  0
  4  1  1  0
  5  4  2  0
  6  5  1  0
  6  3  2  0
  7  5  1  0
  8  7  1  0
  9  8  2  0
 10  8  1  0
 11 10  2  0
 12 10  1  0
 13 11  1  0
 14 13  1  0
 14 12  2  0
 15 14  1  0
 16 15  1  0
 17 16  2  0
 18 16  1  0
 19 18  1  0
 20 19  1  0
 21 20  2  0
 22 20  1  0
 23 21  1  0
 24 22  2  0
 25 24  1  0
 25 23  2  0
 26 25  1  0
 27 24  1  0
 28 27  1  0
 29 28  1  0
M  END
>  <SMILES>  (6) 
CCCc1cc(COC(=O)Nc2cc(C(=O)Oc3cnccn3)cs2)ccc1Br

>  <scaffold>  (6) 
pyrazine

$$$$

     RDKit          3D

 28 30  0  0  0  0  0  0  0  0999 V2000
   -0.0000   -0.0000    0.0000 C   0  0  0  0  0  0  0  0  0  0  0  0
    0.0000    0.0000    1.3941 C   0  0  0  0  0  0  0  0  0  0  0  0
    1.1281   -0.0000    2.0873 N   0  0  0  0  0  0  0  0  0  0  0  0
    1.1130    0.0000   -0.7172 N   0  0  0  0  0  0  0  0  0  0  0  0
    2.2324   -0.0000    0.0041 C   0  0  0  0  0  0  0  0  0  0  0  0
    2.2324    0.0000    1.3982 C   0  0  0  0  0  0  0  0  0  0  0  0
   -1.4567    0.0000    2.3328 S   0  0  0  0  0  0  0  0  0  0  0  0
   -0.7310    0.0715    4.0054 C   0  0  0  0  0  0  0  0  0  0  0  0
   -1.8004    0.1424    5.0452 C   0  0  0  0  0  0  0  0  0  0  0  0
   -1.3853    0.2513    6.3139 N   0  0  0  0  0  0  0  0  0  0  0  0
   -3.0851    0.1471    4.6944 N   0  0  0  0  0  0  0  0  0  0  0  0
   -2.2892    0.3636    7.2541 C   0  0  0  0  0  0  0  0  0  0  0  0
   -3.9875    0.2575    5.6362 C   0  0  0  0  0  0  0  0  0  0  0  0
   -3.6498    0.4307    6.9577 C   0  0  0  0  0  0  0  0  0  0  0  0
   -4.7668    0.6156    7.9181 C   0  0  0  0  0  0  0  0  0  0  0  0
   -5.7302   -0.1131    7.9430 O   0  0  0  0  0  0  0  0  0  0  0  0
   -4.6589    1.6999    8.7362 N   0  0  0  0  0  0  0  0  0  0  0  0
   -5.5408    2.1820    9.6908 C   0  0  0  0  0  0  0  0  0  0  0  0
   -5.2201    3.3183   10.3394 N   0  0  0  0  0  0  0  0  0  0  0  0
   -6.7225    1.5000    9.9767 C   0  0  0  0  0  0  0  0  0  0  0  0
   -5.9491    3.8390   11.2938 C   0  0  0  0  0  0  0  0  0  0  0  0
   -7.4903    2.0492   10.9808 C   0  0  0  0  0  0  0  0  0  0  0  0
   -7.1264    3.1966   11.6743 C   0  0  0  0  0  0  0  0  0  0  0  0
   -7.8599    3.7871   12.6159 F   0  0  0  0  0  0  0  0  0  0  0  0
   -8.9407    1.2096   11.4223 S   0  0  0  0  0  0  0  0  0  0  0  0
   -9.3351    0.0045   10.1103 C   0  0  0  0  0  0  0  0  0  0  0  0
   -9.7498    0.6953    8.8121 C   0  0  0  0  0  0  0  0  0  0  0  0
  -10.1146   -0.3367    7.7838 C   0  0  0  0  0  0  0  0  0  0  0  0
  2  1  2  0
  3  2  1  0
  4  1  1  0
  5  4  2  0
  6  5  1  0
  6  3  2  0
  7  2  1  0
  8  7  1  0
  9  8  1  0
 10  9  2  0
 11  9  1  0
 12 10  1  0
 13 11  2  0
 14 13  1  0
 14 12  2  0
 15 14  1  0
 16 15  2  0
 17 15  1  0
 18 17  1  0
 19 18  2  0
 20 18  1  0
 21 19  1  0
 22 20  2  0
 23 22  1  0
 23 21  2  0
 24 23  1  0
 25 22  1  0
 26 25  1  0
 27 26  1  0
 28 27  1  0
M  END
>  <SMILES>  (7) 
CCCSc1cc(NC(=O)c2cnc(CSc3cnccn3)nc2)ncc1F

>  <scaffold>  (7) 
pyrazine

$$$$

     RDKit          3D

 29 31  0  0  0  0  0  0  0  0999 V2000
    0.0000   -0.0000   -0.0000 C   0  0  0  0  0  0  0  0  0  0  0  0
    0.0000   -0.0000    1.3782 C   0  0  0  0  0  0  0  0  0  0  0  0
    1.1459    0.0000    2.0567 N   0  0  0  0  0  0  0  0  0  0  0  0
    1.1130   -0.0000   -0.7172 N   0  0  0  0  0  0  0  0  0  0  0  0
    2.2715    0.0569   -0.0475 C   0  0  0  0  0  0  0  0  0  0  0  0
    2.2708    0.1135    1.3615 C   0  0  0  0  0  0  0  0  0  0  0  0
    3.3812    0.1034   -0.8234 N   0  0  0  0  0  0  0  0  0  0  0  0
    4.6153    0.2154   -0.3357 N   0  0  0  0  0  0  0  0  0  0  0  0
    5.6321    0.3016   -1.1073 C   0  0  0  0  0  0  0  0  0  0  0  0
    6.9665    0.4741   -0.6337 C   0  0  0  0  0  0  0  0  0  0  0  0
    7.3630    0.6349    0.6599 C   0  0  0  0  0  0  0  0  0  0  0  0
    8.0244    0.5121   -1.4916 O   0  0  0  0  0  0  0  0  0  0  0  0
    8.7500    0.8132    0.5581 C   0  0  0  0  0  0  0  0  0  0  0  0
    9.1621    0.7356   -0.8058 C   0  0  0  0  0  0  0  0  0  0  0  0
   10.7015    0.9099   -1.6258 S   0  0  0  0  0  0  0  0  0  0  0  0
   10.2048    0.2462   -3.2395 C   0  0  0  0  0  0  0  0  0  0  0  0
    9.6724   -1.1848   -3.1824 C   0  0  0  0  0  0  0  0  0  0  0  0
    8.9200   -1.6345   -4.0038 O   0  0  0  0  0  0  0  0  0  0  0  0
   10.2044   -1.8205   -2.1596 O   0  0  0  0  0  0  0  0  0  0  0  0
    9.8244   -3.1977   -2.0290 C   0  0  0  0  0  0  0  0  0  0  0  0
    8.4727   -3.3370   -1.3306 C   0  0  0  0  0  0  0  0  0  0  0  0
    7.9937   -4.7925   -1.2147 C   0  0  0  0  0  0  0  0  0  0  0  0
    6.6236   -4.8720   -0.5632 C   0  0  0  0  0  0  0  0  0  0  0  0
    6.4381   -5.2547    0.7561 C   0  0  0  0  0  0  0  0  0  0  0  0
    5.5284   -4.4497   -1.3447 C   0  0  0  0  0  0  0  0  0  0  0  0
    5.1797   -5.2646    1.3181 C   0  0  0  0  0  0  0  0  0  0  0  0
    4.2646   -4.4575   -0.7754 C   0  0  0  0  0  0  0  0  0  0  0  0
    4.0533   -4.8965    0.5989 C   0  0  0  0  0  0  0  0  0  0  0  0
    5.7763   -4.0620   -2.6189 O   0  0  0  0  0  0  0  0  0  0  0  0
  2  1  2  0
  3  2  1  0
  4  1  1  0
  5  4  2  0
  6  5  1  0
  6  3  2  0
  7  5  1  0
  8  7  1  0
  9  8  2  0
 10  9  1  0
 11 10  2  0
 12 10  1  0
 13 11  1  0
 14 13  2  0
 14 12  1  0
 15 14  1  0
 16 15  1  0
 17 16  1  0
 18 17  2  0
 19 17  1  0
 20 19  1  0
 21 20  1  0
 22 21  1  0
 23 22  1  0
 24 23  2  0
 25 23  1  0
 26 24  1  0
 27 25  2  0
 28 27  1  0
 28 26  2  0
 29 25  1  0
M  END
>  <SMILES>  (8) 
O=C(CSc1ccc(C=NNc2cnccn2)o1)OCCCc1ccccc1O

>  <scaffold>  (8) 
pyrazine

$$$$

     RDKit          3D

 18 19  0  0  0  0  0  0  0  0999 V2000
    0.0000    0.0000   -0.0000 C   0  0  0  0  0  0  0  0  0  0  0  0
   -0.0000    0.0000    1.3941 C   0  0  0  0  0  0  0  0  0  0  0  0
    1.1281    0.0000    2.0873 N   0  0  0  0  0  0  0  0  0  0  0  0
    1.1130    0.0000   -0.7172 N   0  0  0  0  0  0  0  0  0  0  0  0
    2.2324    0.0000    0.0041 C   0  0  0  0  0  0  0  0  0  0  0  0
    2.2324    0.0000    1.3982 C   0  0  0  0  0  0  0  0  0  0  0  0
    3.5226   -0.0542   -0.7628 C   0  0  0  0  0  0  0  0  0  0  0  0
    4.5996   -0.1061   -0.2025 O   0  0  0  0  0  0  0  0  0  0  0  0
    3.4551   -0.0446   -2.1004 N   0  0  0  0  0  0  0  0  0  0  0  0
    4.5196   -0.1449   -3.0691 C   0  0  0  0  0  0  0  0  0  0  0  0
    4.5580   -1.5117   -3.7110 C   0  0  0  0  0  0  0  0  0  0  0  0
    3.4607   -1.9733   -4.4365 C   0  0  0  0  0  0  0  0  0  0  0  0
    5.6538   -2.3425   -3.6184 C   0  0  0  0  0  0  0  0  0  0  0  0
    3.4308   -3.2317   -4.9977 C   0  0  0  0  0  0  0  0  0  0  0  0
    5.6238   -3.6083   -4.1824 C   0  0  0  0  0  0  0  0  0  0  0  0
    4.5136   -4.0983   -4.8564 C   0  0  0  0  0  0  0  0  0  0  0  0
    4.3463   -5.3250   -5.4065 O   0  0  0  0  0  0  0  0  0  0  0  0
    5.3784   -6.2618   -5.3780 C   0  0  0  0  0  0  0  0  0  0  0  0
  2  1  2  0
  3  2  1  0
  4  1  1  0
  5  4  2  0
  6  5  1  0
  6  3  2  0
  7  5  1  0
  8  7  2  0
  9  7  1  0
 10  9  1  0
 11 10  1  0
 12 11  2  0
 13 11  1  0
 14 12  1  0
 15 13  2  0
 16 14  2  0
 16 15  1  0
 17 16  1  0
 18 17  1  0
M  END
>  <SMILES>  (9) 
COc1ccc(CNC(=O)c2cnccn2)cc1

>  <scaffold>  (9) 
pyrazine

$$$$

     RDKit          3D

 28 30  0  0  0  0  0  0  0  0999 V2000
   -0.0000    0.0000   -0.0000 C   0  0  0  0  0  0  0  0  0  0  0  0
   -0.0000    0.0000    1.3941 C   0  0  0  0  0  0  0  0  0  0  0  0
    1.2181   -0.0000    2.0885 C   0  0  0  0  0  0  0  0  0  0  0  0
    1.2250    0.0000   -0.6317 C   0  0  0  0  0  0  0  0  0  0  0  0
    2.4569   -0.0000    0.0036 C   0  0  0  0  0  0  0  0  0  0  0  0
    2.4569   -0.0000    1.3898 C   0  0  0  0  0  0  0  0  0  0  0  0
    1.2684   -0.0503    3.4808 N   0  0  0  0  0  0  0  0  0  0  0  0
   -1.1719   -0.0000    2.1493 N   0  0  0  0  0  0  0  0  0  0  0  0
   -2.4191   -0.3783    1.7518 C   0  0  0  0  0  0  0  0  0  0  0  0
   -2.7090   -0.7838    0.6513 O   0  0  0  0  0  0  0  0  0  0  0  0
   -3.3548   -0.3085    2.7614 N   0  0  0  0  0  0  0  0  0  0  0  0
   -4.6887   -0.5823    2.6077 C   0  0  0  0  0  0  0  0  0  0  0  0
   -5.6022   -0.4856    3.5087 N   0  0  0  0  0  0  0  0  0  0  0  0
   -5.3088   -1.1303    1.0850 S   0  0  0  0  0  0  0  0  0  0  0  0
   -6.8415   -0.8671    3.1161 C   0  0  0  0  0  0  0  0  0  0  0  0
   -6.8961   -1.2552    1.8419 C   0  0  0  0  0  0  0  0  0  0  0  0
   -8.1271   -1.6533    1.1134 C   0  0  0  0  0  0  0  0  0  0  0  0
   -7.8515   -2.6903    0.0627 C   0  0  0  0  0  0  0  0  0  0  0  0
   -7.5785   -4.0049    0.4381 C   0  0  0  0  0  0  0  0  0  0  0  0
   -7.7732   -2.3938   -1.2973 C   0  0  0  0  0  0  0  0  0  0  0  0
   -7.2714   -4.9790   -0.4873 C   0  0  0  0  0  0  0  0  0  0  0  0
   -7.4692   -3.3710   -2.2205 C   0  0  0  0  0  0  0  0  0  0  0  0
   -7.2228   -4.6815   -1.8403 C   0  0  0  0  0  0  0  0  0  0  0  0
   -6.9868   -5.5554   -2.8378 O   0  0  0  0  0  0  0  0  0  0  0  0
   -6.7527   -6.9397   -2.5857 C   0  0  1  0  0  0  0  0  0  0  0  0
   -8.0524   -7.6708   -2.2527 C   0  0  0  0  0  0  0  0  0  0  0  0
   -6.0771   -7.4771   -3.8463 C   0  0  0  0  0  0  0  0  0  0  0  0
   -9.0310   -7.6564   -3.4259 C   0  0  0  0  0  0  0  0  0  0  0  0
  2  1  2  0
  3  2  1  0
  4  1  1  0
  5  4  2  0
  6  5  1  0
  6  3  2  0
  7  3  1  0
  8  2  1  0
  9  8  1  0
 10  9  2  0
 11  9  1  0
 12 11  1  0
 13 12  2  0
 14 12  1  0
 15 13  1  0
 16 15  2  0
 16 14  1  0
 17 16  1  0
 18 17  1  0
 19 18  2  0
 20 18  1  0
 21 19  1  0
 22 20  2  0
 23 22  1  0
 23 21  2  0
 24 23  1  0
 25 24  1  0
 26 25  1  0
 25 27  1  6
 28 26  1  0
M  END
>  <SMILES>  (10) 
CCC(C)Oc1ccc(Cc2cnc(NC(=O)Nc3ccccc3N)s2)cc1

>  <scaffold>  (10) 
pyrazine

$$$$

     RDKit          3D

 27 29  0  0  0  0  0  0  0  0999 V2000
    0.0000   -0.0000    0.0000 C   0  0  0  0  0  0  0  0  0  0  0  0
   -0.0000    0.0000    1.3862 C   0  0  0  0  0  0  0  0  0  0  0  0
    1.1281   -0.0000    2.0794 N   0  0  0  0  0  0  0  0  0  0  0  0
    1.1130    0.0000   -0.7172 N   0  0  0  0  0  0  0  0  0  0  0  0
    2.2324    0.0000    0.0041 C   0  0  0  0  0  0  0  0  0  0  0  0
    2.2324   -0.0000    1.3982 C   0  0  0  0  0  0  0  0  0  0  0  0
    3.6616   -0.0629   -0.9916 S   0  0  0  0  0  0  0  0  0  0  0  0
    3.0689   -0.3124   -2.6991 C   0  0  0  0  0  0  0  0  0  0  0  0
    2.2191   -1.5284   -2.7592 C   0  0  0  0  0  0  0  0  0  0  0  0
    1.0861   -1.4884   -3.4135 N   0  0  0  0  0  0  0  0  0  0  0  0
    2.4513   -2.8314   -2.2726 C   0  0  0  0  0  0  0  0  0  0  0  0
    0.5913   -2.7381   -3.3252 O   0  0  0  0  0  0  0  0  0  0  0  0
    1.3773   -3.5881   -2.6340 C   0  0  0  0  0  0  0  0  0  0  0  0
    0.9225   -4.9938   -2.4174 C   0  0  0  0  0  0  0  0  0  0  0  0
    2.0456   -5.7862   -2.1021 O   0  0  0  0  0  0  0  0  0  0  0  0
    3.0216   -6.0038   -3.0392 C   0  0  0  0  0  0  0  0  0  0  0  0
    4.1703   -6.6839   -2.6374 C   0  0  0  0  0  0  0  0  0  0  0  0
    2.8985   -5.5689   -4.3496 C   0  0  0  0  0  0  0  0  0  0  0  0
    5.1958   -7.0091   -3.4989 C   0  0  0  0  0  0  0  0  0  0  0  0
    3.9296   -5.8962   -5.2162 C   0  0  0  0  0  0  0  0  0  0  0  0
    5.1026   -6.6507   -4.8429 C   0  0  0  0  0  0  0  0  0  0  0  0
    6.1924   -6.9772   -5.5784 O   0  0  0  0  0  0  0  0  0  0  0  0
    6.1651   -6.5870   -6.9417 C   0  0  0  0  0  0  0  0  0  0  0  0
    7.5208   -7.0240   -7.4946 C   0  0  2  0  0  0  0  0  0  0  0  0
    7.5583   -6.6308   -8.7743 F   0  0  0  0  0  0  0  0  0  0  0  0
    7.7352   -8.5338   -7.4012 C   0  0  0  0  0  0  0  0  0  0  0  0
    9.1235   -8.9115   -7.9154 C   0  0  0  0  0  0  0  0  0  0  0  0
  2  1  2  0
  3  2  1  0
  4  1  1  0
  5  4  2  0
  6  5  1  0
  6  3  2  0
  7  5  1  0
  8  7  1  0
  9  8  1  0
 10  9  2  0
 11  9  1  0
 12 10  1  0
 13 12  1  0
 13 11  2  0
 14 13  1  0
 15 14  1  0
 16 15  1  0
 17 16  2  0
 18 16  1  0
 19 17  1  0
 20 18  2  0
 21 20  1  0
 21 19  2  0
 22 21  1  0
 23 22  1  0
 24 23  1  0
 24 25  1  6
 26 24  1  0
 27 26  1  0
M  END
>  <SMILES>  (11) 
CCC(F)COc1ccc(OCc2cc(CSc3cnccn3)no2)cc1

>  <scaffold>  (11) 
pyrazine

$$$$

     RDKit          3D

 30 32  0  0  0  0  0  0  0  0999 V2000
    0.0000   -0.0000    0.0000 C   0  0  0  0  0  0  0  0  0  0  0  0
    0.0000   -0.0000    1.3862 C   0  0  0  0  0  0  0  0  0  0  0  0
    1.1346   -0.0000    2.0834 N   0  0  0  0  0  0  0  0  0  0  0  0
    1.1130    0.0000   -0.7172 N   0  0  0  0  0  0  0  0  0  0  0  0
    2.2324   -0.0000    0.0041 C   0  0  0  0  0  0  0  0  0  0  0  0
    2.2324   -0.0000    1.4062 C   0  0  0  0  0  0  0  0  0  0  0  0
    3.3244    0.0480   -0.7567 O   0  0  0  0  0  0  0  0  0  0  0  0
    4.5235   -0.1564   -0.0594 C   0  0  0  0  0  0  0  0  0  0  0  0
    4.7624   -1.2788    0.7181 C   0  0  0  0  0  0  0  0  0  0  0  0
    5.5177    0.7454   -0.3723 C   0  0  0  0  0  0  0  0  0  0  0  0
    5.9760   -1.4595    1.3459 C   0  0  0  0  0  0  0  0  0  0  0  0
    6.7311    0.5535    0.2526 C   0  0  0  0  0  0  0  0  0  0  0  0
    6.9777   -0.5345    1.1449 C   0  0  0  0  0  0  0  0  0  0  0  0
    8.5116   -0.7898    2.0387 S   0  0  0  0  0  6  0  0  0  0  0  0
    8.4955   -2.0474    2.7288 O   0  0  0  0  0  0  0  0  0  0  0  0
    9.6146   -0.4996    1.1550 O   0  0  0  0  0  0  0  0  0  0  0  0
    8.5140    0.3858    3.2042 N   0  0  0  0  0  0  0  0  0  0  0  0
    7.5168    0.3022    4.2781 C   0  0  0  0  0  0  0  0  0  0  0  0
    7.8857   -0.7294    5.3178 C   0  0  0  0  0  0  0  0  0  0  0  0
    7.0903   -1.8293    5.5989 C   0  0  0  0  0  0  0  0  0  0  0  0
    9.0671   -0.5960    6.0306 C   0  0  0  0  0  0  0  0  0  0  0  0
    7.4947   -2.7761    6.5271 C   0  0  0  0  0  0  0  0  0  0  0  0
    9.4713   -1.5429    6.9586 C   0  0  0  0  0  0  0  0  0  0  0  0
    8.6966   -2.6703    7.2094 C   0  0  0  0  0  0  0  0  0  0  0  0
    9.0279   -3.5944    8.1430 F   0  0  0  0  0  0  0  0  0  0  0  0
   10.5915   -1.4307    7.7123 O   0  0  0  0  0  0  0  0  0  0  0  0
   11.4652   -0.3511    7.4679 C   0  0  0  0  0  0  0  0  0  0  0  0
   12.2710   -0.5098    6.1795 C   0  0  0  0  0  0  0  0  0  0  0  0
   13.2732    0.6083    5.8967 C   0  0  0  0  0  0  0  0  0  0  0  0
   14.0904    0.3748    4.6270 C   0  0  0  0  0  0  0  0  0  0  0  0
  2  1  2  0
  3  2  1  0
  4  1  1  0
  5  4  2  0
  6  5  1  0
  6  3  2  0
  7  5  1  0
  8  7  1  0
  9  8  2  0
 10  8  1  0
 11  9  1  0
 12 10  2  0
 13 12  1  0
 13 11  2  0
 14 13  1  0
 15 14  2  0
 16 14  2  0
 17 14  1  0
 18 17  1  0
 19 18  1  0
 20 19  2  0
 21 19  1  0
 22 20  1  0
 23 21  2  0
 24 23  1  0
 24 22  2  0
 25 24  1  0
 26 23  1  0
 27 26  1  0
 28 27  1  0
 29 28  1  0
 30 29  1  0
M  END
>  <SMILES>  (12) 
CCCCOc1cc(CNS(=O)(=O)c2ccc(Oc3cnccn3)cc2)ccc1F

>  <scaffold>  (12) 
pyrazine

$$$$

     RDKit          3D

 24 26  0  0  0  0  0  0  0  0999 V2000
    0.0000    0.0000    0.0000 C   0  0  0  0  0  0  0  0  0  0  0  0
   -0.0000   -0.0000    1.3941 C   0  0  0  0  0  0  0  0  0  0  0  0
    1.2364    0.0000    2.0722 C   0  0  0  0  0  0  0  0  0  0  0  0
    1.1922   -0.0586   -0.6891 C   0  0  0  0  0  0  0  0  0  0  0  0
    2.3857   -0.0586    0.0000 C   0  0  0  0  0  0  0  0  0  0  0  0
    2.4533   -0.0017    1.3754 C   0  0  0  0  0  0  0  0  0  0  0  0
    1.2844    0.0480    3.4022 O   0  0  0  0  0  0  0  0  0  0  0  0
   -1.3196   -0.0000    2.0746 C   0  0  0  0  0  0  0  0  0  0  0  0
   -2.3182    0.4723    1.5683 O   0  0  0  0  0  0  0  0  0  0  0  0
   -1.3733   -0.6137    3.3075 N   0  0  0  0  0  0  0  0  0  0  0  0
   -2.5458   -0.7243    4.0082 C   0  0  0  0  0  0  0  0  0  0  0  0
   -2.6493   -1.3254    5.1328 N   0  0  0  0  0  0  0  0  0  0  0  0
   -4.0279   -0.0918    3.3706 S   0  0  0  0  0  0  0  0  0  0  0  0
   -3.9164   -1.3402    5.5899 C   0  0  0  0  0  0  0  0  0  0  0  0
   -4.8570   -0.7236    4.8050 C   0  0  0  0  0  0  0  0  0  0  0  0
   -6.2893   -0.6334    5.0193 C   0  0  0  0  0  0  0  0  0  0  0  0
   -6.8130   -1.0411    6.0372 O   0  0  0  0  0  0  0  0  0  0  0  0
   -7.0138    0.0542    3.8978 C   0  0  0  0  0  0  0  0  0  0  0  0
   -7.3330    1.4104    3.9472 C   0  0  0  0  0  0  0  0  0  0  0  0
   -7.3488   -0.6500    2.7422 C   0  0  0  0  0  0  0  0  0  0  0  0
   -7.9550    2.0088    2.8728 C   0  0  0  0  0  0  0  0  0  0  0  0
   -7.9727   -0.0459    1.6617 C   0  0  0  0  0  0  0  0  0  0  0  0
   -8.2888    1.3193    1.7175 C   0  0  0  0  0  0  0  0  0  0  0  0
   -8.2712    3.7101    2.9671 Cl  0  0  0  0  0  0  0  0  0  0  0  0
  2  1  2  0
  3  2  1  0
  4  1  1  0
  5  4  2  0
  6  5  1  0
  6  3  2  0
  7  3  1  0
  8  2  1  0
  9  8  2  0
 10  8  1  0
 11 10  1  0
 12 11  1  0
 13 11  2  0
 14 12  2  0
 15 14  1  0
 15 13  1  0
 16 15  2  0
 17 16  1  0
 18 16  1  0
 19 18  2  0
 20 18  1  0
 21 19  1  0
 22 20  2  0
 23 22  1  0
 23 21  2  0
 24 21  1  0
M  CHG  2  13   1  17  -1
M  END
>  <SMILES>  (13) 
O=C(NC1=[S+]C(=C([O-])c2cccc(Cl)c2)C=N1)c1ccccc1O

>  <scaffold>  (13) 
pyrazine

$$$$

     RDKit          3D

 33 35  0  0  0  0  0  0  0  0999 V2000
    0.0000   -0.0000    0.0000 C   0  0  0  0  0  0  0  0  0  0  0  0
   -0.0000   -0.0000    1.3941 C   0  0  0  0  0  0  0  0  0  0  0  0
    1.2364    0.0000    2.0722 C   0  0  0  0  0  0  0  0  0  0  0  0
    1.1922   -0.0586   -0.6891 C   0  0  0  0  0  0  0  0  0  0  0  0
    2.3857   -0.0586   -0.0000 C   0  0  0  0  0  0  0  0  0  0  0  0
    2.3857   -0.0586    1.3782 C   0  0  0  0  0  0  0  0  0  0  0  0
    1.2858    0.0494    3.4408 N   0  0  0  0  0  0  0  0  0  0  0  0
   -1.1922   -0.0586    2.0832 N   0  0  0  0  0  0  0  0  0  0  0  0
   -2.3542   -0.1157    1.4833 N   0  0  0  0  0  0  0  0  0  0  0  0
   -3.4341   -0.2149    2.1621 C   0  0  0  0  0  0  0  0  0  0  0  0
   -4.7003   -0.2226    1.4533 C   0  0  0  0  0  0  0  0  0  0  0  0
   -5.8939   -0.4590    2.1338 C   0  0  0  0  0  0  0  0  0  0  0  0
   -4.7592    0.0560    0.0639 C   0  0  0  0  0  0  0  0  0  0  0  0
   -7.0890   -0.4280    1.5299 N   0  0  0  0  0  0  0  0  0  0  0  0
   -5.9756    0.0852   -0.5491 C   0  0  0  0  0  0  0  0  0  0  0  0
   -7.2440   -0.0944    0.1769 C   0  0  0  0  0  0  0  0  0  0  0  0
   -8.3379   -0.0365   -0.3161 O   0  0  0  0  0  0  0  0  0  0  0  0
   -8.3070   -0.6298    2.2924 C   0  0  0  0  0  0  0  0  0  0  0  0
   -8.8135    0.6368    2.9409 C   0  0  0  0  0  0  0  0  0  0  0  0
   -9.9492    0.5604    3.7459 C   0  0  0  0  0  0  0  0  0  0  0  0
   -8.1929    1.8713    2.8302 C   0  0  0  0  0  0  0  0  0  0  0  0
  -10.4795    1.7043    4.3217 C   0  0  0  0  0  0  0  0  0  0  0  0
   -8.7227    3.0168    3.4033 C   0  0  0  0  0  0  0  0  0  0  0  0
   -9.9193    2.9578    4.1307 C   0  0  0  0  0  0  0  0  0  0  0  0
  -10.5103    4.4371    4.8861 S   0  0  0  0  0  0  0  0  0  0  0  0
  -12.2372    4.0094    5.2912 C   0  0  0  0  0  0  0  0  0  0  0  0
  -13.1481    3.8895    4.0705 C   0  0  1  0  0  0  0  0  0  0  0  0
  -14.5406    3.3924    4.4556 C   0  0  0  0  0  0  0  0  0  0  0  0
  -13.2476    5.2261    3.3370 C   0  0  0  0  0  0  0  0  0  0  0  0
  -14.2039    5.0679    2.1672 C   0  0  0  0  0  0  0  0  0  0  0  0
  -14.2966    6.3658    1.3664 C   0  0  0  0  0  0  0  0  0  0  0  0
  -15.2248    6.1380    0.1744 C   0  0  0  0  0  0  0  0  0  0  0  0
  -15.2401    7.4429   -0.6203 C   0  0  0  0  0  0  0  0  0  0  0  0
  2  1  2  0
  3  2  1  0
  4  1  1  0
  5  4  2  0
  6  5  1  0
  6  3  2  0
  7  3  1  0
  8  2  1  0
  9  8  1  0
 10  9  2  0
 11 10  1  0
 12 11  2  0
 13 11  1  0
 14 12  1  0
 15 13  2  0
 16 15  1  0
 16 14  1  0
 17 16  2  0
 18 14  1  0
 19 18  1  0
 20 19  2  0
 21 19  1  0
 22 20  1  0
 23 21  1  0
 24 23  1  0
 24 22  2  0
 25 24  1  0
 26 25  1  0
 27 26  1  0
 27 28  1  1
 29 27  1  0
 30 29  1  0
 31 30  1  0
 32 31  1  0
 33 32  1  0
M  END
>  <SMILES>  (14) 
CCCCCC(C)CSC1=CC=C(Cn2cc(C=NNc3ccccc3N)ccc2=O)CC1

>  <scaffold>  (14) 
pyrazine

$$$$

     RDKit          3D

 23 24  0  0  0  0  0  0  0  0999 V2000
   -0.0000   -0.0000    0.0000 C   0  0  0  0  0  0  0  0  0  0  0  0
    0.0000    0.0000    1.3941 C   0  0  0  0  0  0  0  0  0  0  0  0
    1.1591   -0.0000    2.0804 N   0  0  0  0  0  0  0  0  0  0  0  0
    1.1067   -0.0000   -0.7131 N   0  0  0  0  0  0  0  0  0  0  0  0
    2.2325    0.0000    0.0124 C   0  0  0  0  0  0  0  0  0  0  0  0
    2.2325   -0.0000    1.4306 C   0  0  0  0  0  0  0  0  0  0  0  0
   -1.4237    0.0000    2.3116 Cl  0  0  0  0  0  0  0  0  0  0  0  0
    3.3307    0.0483   -0.7528 N   0  0  0  0  0  0  0  0  0  0  0  0
    3.3942   -0.0806   -2.1235 N   0  0  0  0  0  0  0  0  0  0  0  0
    4.4684   -0.4437   -2.8649 C   0  0  0  0  0  0  0  0  0  0  0  0
    5.5275   -0.5300   -2.3044 O   0  0  0  0  0  0  0  0  0  0  0  0
    4.2439   -0.6792   -4.3488 C   0  0  0  0  0  0  0  0  0  0  0  0
    3.0559   -2.0653   -4.6848 S   0  0  0  0  0  0  0  0  0  0  0  0
    2.9036   -2.9738   -3.1578 C   0  0  0  0  0  0  0  0  0  0  0  0
    3.9746   -3.5186   -2.4510 C   0  0  0  0  0  0  0  0  0  0  0  0
    1.6204   -3.1645   -2.6474 C   0  0  0  0  0  0  0  0  0  0  0  0
    3.8022   -4.2602   -1.2927 C   0  0  0  0  0  0  0  0  0  0  0  0
    1.4506   -3.8984   -1.5026 C   0  0  0  0  0  0  0  0  0  0  0  0
    2.4949   -4.5021   -0.8731 C   0  0  0  0  0  0  0  0  0  0  0  0
    2.1980   -5.2615    0.2186 O   0  0  0  0  0  0  0  0  0  0  0  0
    3.1568   -5.6731    1.1912 C   0  0  0  0  0  0  0  0  0  0  0  0
    3.6191   -4.4997    2.0536 C   0  0  0  0  0  0  0  0  0  0  0  0
    4.4037   -4.9311    3.2916 C   0  0  0  0  0  0  0  0  0  0  0  0
  2  1  2  0
  3  2  1  0
  4  1  1  0
  5  4  2  0
  6  5  1  0
  6  3  2  0
  7  2  1  0
  8  5  1  0
  9  8  1  0
 10  9  1  0
 11 10  2  0
 12 10  1  0
 13 12  1  0
 14 13  1  0
 15 14  2  0
 16 14  1  0
 17 15  1  0
 18 16  2  0
 19 18  1  0
 19 17  2  0
 20 19  1  0
 21 20  1  0
 22 21  1  0
 23 22  1  0
M  END
>  <SMILES>  (15) 
CCCOc1ccc(SCC(=O)NNc2cnc(Cl)cn2)cc1

>  <scaffold>  (15) 
pyrazine

$$$$

     RDKit          3D

 19 20  0  0  0  0  0  0  0  0999 V2000
   -0.0000   -0.0000   -0.0000 C   0  0  0  0  0  0  0  0  0  0  0  0
   -0.0000   -0.0000    1.3941 C   0  0  0  0  0  0  0  0  0  0  0  0
    1.2364    0.0000    2.0722 C   0  0  0  0  0  0  0  0  0  0  0  0
    1.1922   -0.0586   -0.6891 C   0  0  0  0  0  0  0  0  0  0  0  0
    2.3857   -0.0586    0.0000 C   0  0  0  0  0  0  0  0  0  0  0  0
    2.4533   -0.0017    1.3754 C   0  0  0  0  0  0  0  0  0  0  0  0
    1.2982    0.0618    3.7833 Cl  0  0  0  0  0  0  0  0  0  0  0  0
    1.1224   -0.1218   -2.5324 S   0  0  0  0  0  6  0  0  0  0  0  0
   -0.2493   -0.1511   -2.9790 O   0  0  0  0  0  0  0  0  0  0  0  0
    1.9393    0.9713   -3.0259 O   0  0  0  0  0  0  0  0  0  0  0  0
    1.7916   -1.7585   -2.8891 C   0  0  0  0  0  0  0  0  0  0  0  0
    1.0375   -2.9057   -2.6467 C   0  0  0  0  0  0  0  0  0  0  0  0
    3.0570   -1.8307   -3.3892 C   0  0  0  0  0  0  0  0  0  0  0  0
    1.5658   -4.1174   -2.9770 C   0  0  0  0  0  0  0  0  0  0  0  0
    3.6315   -3.0686   -3.6320 C   0  0  0  0  0  0  0  0  0  0  0  0
    2.8329   -4.2909   -3.5517 C   0  0  0  0  0  0  0  0  0  0  0  0
    3.2239   -5.5289   -3.8806 O   0  0  0  0  0  0  0  0  0  0  0  0
    4.4485   -5.8269   -4.5131 C   0  0  0  0  0  0  0  0  0  0  0  0
    4.4000   -5.4491   -5.9927 C   0  0  0  0  0  0  0  0  0  0  0  0
  2  1  2  0
  3  2  1  0
  4  1  1  0
  5  4  2  0
  6  5  1  0
  6  3  2  0
  7  3  1  0
  8  4  1  0
  9  8  2  0
 10  8  2  0
 11  8  1  0
 12 11  2  0
 13 11  1  0
 14 12  1  0
 15 13  2  0
 16 15  1  0
 16 14  2  0
 17 16  1  0
 18 17  1  0
 19 18  1  0
M  END
>  <SMILES>  (16) 
CCOc1ccc(S(=O)(=O)c2ccc(Cl)cc2)cc1

>  <scaffold>  (16) 
pyrazine

$$$$

     RDKit          3D

 26 28  0  0  0  0  0  0  0  0999 V2000
    0.0000    0.0000   -0.0000 C   0  0  0  0  0  0  0  0  0  0  0  0
   -0.0000    0.0000    1.3941 C   0  0  0  0  0  0  0  0  0  0  0  0
    1.1281    0.0000    2.0873 N   0  0  0  0  0  0  0  0  0  0  0  0
    1.1067   -0.0000   -0.7131 N   0  0  0  0  0  0  0  0  0  0  0  0
    2.2261   -0.0000    0.0082 C   0  0  0  0  0  0  0  0  0  0  0  0
    2.2261   -0.0000    1.4103 C   0  0  0  0  0  0  0  0  0  0  0  0
    3.7233    0.0629   -0.8818 S   0  0  0  0  0  0  0  0  0  0  0  0
    3.2346    0.1807   -2.6467 C   0  0  2  0  0  0  0  0  0  0  0  0
    4.3736   -0.2633   -3.5632 C   0  0  0  0  0  0  0  0  0  0  0  0
    2.7709    1.6041   -2.9523 C   0  0  0  0  0  0  0  0  0  0  0  0
    2.3255    1.6349   -4.4135 C   0  0  0  0  0  0  0  0  0  0  0  0
    3.9982   -0.2356   -5.0439 C   0  0  0  0  0  0  0  0  0  0  0  0
    3.4724    1.2606   -5.3510 C   0  0  1  0  0  0  0  0  0  0  0  0
    3.1241    1.3239   -6.7077 O   0  0  0  0  0  0  0  0  0  0  0  0
    3.0446    2.5509   -7.2948 C   0  0  0  0  0  0  0  0  0  0  0  0
    2.5469    2.4716   -8.5946 C   0  0  0  0  0  0  0  0  0  0  0  0
    3.3829    3.8027   -6.7830 C   0  0  0  0  0  0  0  0  0  0  0  0
    2.4701    3.6458   -9.3122 C   0  0  0  0  0  0  0  0  0  0  0  0
    3.3055    4.9837   -7.5046 C   0  0  0  0  0  0  0  0  0  0  0  0
    2.8456    4.8979   -8.8509 C   0  0  0  0  0  0  0  0  0  0  0  0
    2.7432    6.0825   -9.5003 F   0  0  0  0  0  0  0  0  0  0  0  0
    3.6547    6.2481   -7.1360 O   0  0  0  0  0  0  0  0  0  0  0  0
    3.9969    6.4131   -5.7611 C   0  0  0  0  0  0  0  0  0  0  0  0
    2.7775    6.4866   -4.8580 C   0  0  0  0  0  0  0  0  0  0  0  0
    3.1470    6.7615   -3.1032 S   0  0  0  0  0  0  0  0  0  0  0  0
    3.8336    5.1487   -2.6771 C   0  0  0  0  0  0  0  0  0  0  0  0
  2  1  2  0
  3  2  1  0
  4  1  1  0
  5  4  2  0
  6  5  1  0
  6  3  2  0
  7  5  1  0
  8  7  1  1
  9  8  1  0
 10  8  1  0
 11 10  1  0
 12  9  1  0
 13 12  1  0
 13 11  1  0
 13 14  1  6
 15 14  1  0
 16 15  2  0
 17 15  1  0
 18 16  1  0
 19 17  2  0
 20 19  1  0
 20 18  2  0
 21 20  1  0
 22 19  1  0
 23 22  1  0
 24 23  1  0
 25 24  1  0
 26 25  1  0
M  END
>  <SMILES>  (17) 
CSCCOc1cc(OC2CCC(Sc3cnccn3)CC2)ccc1F

>  <scaffold>  (17) 
pyrazine

$$$$

     RDKit          3D

 23 25  0  0  0  0  0  0  0  0999 V2000
   -0.0000   -0.0000   -0.0000 C   0  0  0  0  0  0  0  0  0  0  0  0
    0.0000    0.0000    1.3941 C   0  0  0  0  0  0  0  0  0  0  0  0
    1.1281   -0.0000    2.0873 N   0  0  0  0  0  0  0  0  0  0  0  0
    1.1067    0.0000   -0.7131 N   0  0  0  0  0  0  0  0  0  0  0  0
    2.2261   -0.0000    0.0082 C   0  0  0  0  0  0  0  0  0  0  0  0
    2.2261   -0.0000    1.4023 C   0  0  0  0  0  0  0  0  0  0  0  0
   -1.2552   -0.0000    2.2030 C   0  0  0  0  0  0  0  0  0  0  0  0
    3.3207    0.0544   -0.8534 N   0  0  0  0  0  0  0  0  0  0  0  0
    4.6070    0.0148   -0.4297 C   0  0  0  0  0  0  0  0  0  0  0  0
    5.0458   -0.0693    0.6928 O   0  0  0  0  0  0  0  0  0  0  0  0
    5.5106    0.1528   -1.6104 C   0  0  0  0  0  0  0  0  0  0  0  0
    6.7453   -0.2079   -1.2962 N   0  0  0  0  0  0  0  0  0  0  0  0
    5.2741    0.6566   -2.8886 C   0  0  0  0  0  0  0  0  0  0  0  0
    7.6386   -0.0797   -2.2443 C   0  0  0  0  0  0  0  0  0  0  0  0
    6.2048    0.7793   -3.8762 C   0  0  0  0  0  0  0  0  0  0  0  0
    7.4208    0.3937   -3.5374 C   0  0  0  0  0  0  0  0  0  0  0  0
    8.2357    0.5206   -4.6024 O   0  0  0  0  0  0  0  0  0  0  0  0
    9.5999    0.3464   -4.3291 C   0  0  0  0  0  0  0  0  0  0  0  0
   10.3546    1.1105   -3.4402 C   0  0  0  0  0  0  0  0  0  0  0  0
   10.2667   -0.4771   -5.2227 C   0  0  0  0  0  0  0  0  0  0  0  0
   11.7302    0.9299   -3.2372 C   0  0  0  0  0  0  0  0  0  0  0  0
   11.6285   -0.6393   -5.0212 C   0  0  0  0  0  0  0  0  0  0  0  0
   12.3438   -0.0270   -4.0165 C   0  0  0  0  0  0  0  0  0  0  0  0
  2  1  2  0
  3  2  1  0
  4  1  1  0
  5  4  2  0
  6  5  1  0
  6  3  2  0
  7  2  1  0
  8  5  1  0
  9  8  1  0
 10  9  2  0
 11  9  1  0
 12 11  2  0
 13 11  1  0
 14 12  1  0
 15 13  2  0
 16 15  1  0
 16 14  2  0
 17 16  1  0
 18 17  1  0
 19 18  2  0
 20 18  1  0
 21 19  1  0
 22 20  2  0
 23 22  1  0
 23 21  2  0
M  END
>  <SMILES>  (18) 
Cc1cnc(NC(=O)c2ccc(Oc3ccccc3)cn2)cn1

>  <scaffold>  (18) 
pyrazine

$$$$

     RDKit          3D

 21 22  0  0  0  0  0  0  0  0999 V2000
   -0.0000   -0.0000   -0.0000 C   0  0  0  0  0  0  0  0  0  0  0  0
    0.0000    0.0000    1.3941 C   0  0  0  0  0  0  0  0  0  0  0  0
    1.1281    0.0000    2.0873 N   0  0  0  0  0  0  0  0  0  0  0  0
    1.1130   -0.0000   -0.7172 N   0  0  0  0  0  0  0  0  0  0  0  0
    2.2324    0.0000    0.0041 C   0  0  0  0  0  0  0  0  0  0  0  0
    2.2324   -0.0000    1.3982 C   0  0  0  0  0  0  0  0  0  0  0  0
    3.6534    0.0625   -0.9859 Cl  0  0  0  0  0  0  0  0  0  0  0  0
   -1.5491   -0.0000    2.1930 S   0  0  0  0  0  0  0  0  0  0  0  0
   -0.9045    0.0726    3.9208 C   0  0  0  0  0  0  0  0  0  0  0  0
   -1.0128    1.4941    4.3934 C   0  0  0  0  0  0  0  0  0  0  0  0
   -2.2005    1.9776    4.9403 C   0  0  0  0  0  0  0  0  0  0  0  0
    0.0591    2.3508    4.2642 C   0  0  0  0  0  0  0  0  0  0  0  0
   -2.3622    3.2862    5.3415 C   0  0  0  0  0  0  0  0  0  0  0  0
   -0.1043    3.6663    4.6692 C   0  0  0  0  0  0  0  0  0  0  0  0
   -1.3015    4.1930    5.2051 C   0  0  0  0  0  0  0  0  0  0  0  0
   -1.5608    5.4271    5.6786 O   0  0  0  0  0  0  0  0  0  0  0  0
   -0.6332    6.4903    5.4695 C   0  0  1  0  0  0  0  0  0  0  0  0
   -0.7015    7.0246    4.0397 C   0  0  0  0  0  0  0  0  0  0  0  0
   -1.0632    7.5885    6.4407 C   0  0  0  0  0  0  0  0  0  0  0  0
   -0.9052    7.2286    7.9172 C   0  0  0  0  0  0  0  0  0  0  0  0
   -1.4021    8.3437    8.8504 C   0  0  0  0  0  0  0  0  0  0  0  0
  2  1  2  0
  3  2  1  0
  4  1  1  0
  5  4  2  0
  6  5  1  0
  6  3  2  0
  7  5  1  0
  8  2  1  0
  9  8  1  0
 10  9  1  0
 11 10  2  0
 12 10  1  0
 13 11  1  0
 14 12  2  0
 15 14  1  0
 15 13  2  0
 16 15  1  0
 17 16  1  0
 17 18  1  6
 19 17  1  0
 20 19  1  0
 21 20  1  0
M  END
>  <SMILES>  (19) 
CCCC(C)Oc1ccc(CSc2cnc(Cl)cn2)cc1

>  <scaffold>  (19) 
pyrazine

$$$$

     RDKit          3D

 34 35  0  0  0  0  0  0  0  0999 V2000
   -0.0000    0.0000    0.0000 C   0  0  0  0  0  0  0  0  0  0  0  0
   -0.0000   -0.0000    1.3941 C   0  0  0  0  0  0  0  0  0  0  0  0
    1.2181    0.0000    2.0885 C   0  0  0  0  0  0  0  0  0  0  0  0
    1.2250    0.0000   -0.6317 C   0  0  0  0  0  0  0  0  0  0  0  0
    2.4569   -0.0000    0.0036 C   0  0  0  0  0  0  0  0  0  0  0  0
    2.4569    0.0000    1.3898 C   0  0  0  0  0  0  0  0  0  0  0  0
    1.2717    0.0536    3.5713 C   0  0  0  0  0  0  0  0  0  0  0  0
    0.5508    0.7981    4.2190 O   0  0  0  0  0  0  0  0  0  0  0  0
    2.1465   -0.7898    4.1702 N   0  0  0  0  0  0  0  0  0  0  0  0
    2.2507   -0.8719    5.5661 N   0  0  0  0  0  0  0  0  0  0  0  0
    2.1611   -2.1203    6.1432 C   0  0  0  0  0  0  0  0  0  0  0  0
    2.3721   -3.1887    5.4034 N   0  0  0  0  0  0  0  0  0  0  0  0
    1.9054   -2.2179    7.5348 C   0  0  0  0  0  0  0  0  0  0  0  0
    2.3437   -4.3842    5.9171 N   0  0  0  0  0  0  0  0  0  0  0  0
    1.8737   -3.4706    8.0698 C   0  0  0  0  0  0  0  0  0  0  0  0
    2.1042   -4.5736    7.1900 C   0  0  0  0  0  0  0  0  0  0  0  0
    2.1320   -5.8183    7.6838 O   0  0  0  0  0  0  0  0  0  0  0  0
    2.4283   -6.8991    6.7750 C   0  0  2  0  0  0  0  0  0  0  0  0
    1.1840   -7.3076    5.9882 C   0  0  0  0  0  0  0  0  0  0  0  0
    2.9878   -8.0789    7.5683 C   0  0  0  0  0  0  0  0  0  0  0  0
    4.3252   -7.7645    8.2369 C   0  0  0  0  0  0  0  0  0  0  0  0
    4.8636   -8.9837    8.9659 C   0  0  2  0  0  0  0  0  0  0  0  0
    4.0385   -9.3750   10.0086 F   0  0  0  0  0  0  0  0  0  0  0  0
    6.2661   -8.7674    9.5323 C   0  0  0  0  0  0  0  0  0  0  0  0
    6.7821  -10.0377   10.2064 C   0  0  0  0  0  0  0  0  0  0  0  0
    8.1615   -9.8573   10.8382 C   0  0  0  0  0  0  0  0  0  0  0  0
    8.6071  -11.1368   11.5443 C   0  0  0  0  0  0  0  0  0  0  0  0
    9.9593  -10.9910   12.2404 C   0  0  0  0  0  0  0  0  0  0  0  0
   10.3326  -12.2776   12.9751 C   0  0  0  0  0  0  0  0  0  0  0  0
   11.7043  -12.2021   13.6438 C   0  0  0  0  0  0  0  0  0  0  0  0
   12.0526  -13.5289   14.3166 C   0  0  0  0  0  0  0  0  0  0  0  0
   13.4408  -13.5232   14.9547 C   0  0  0  0  0  0  0  0  0  0  0  0
   13.7614  -14.8868   15.5646 C   0  0  0  0  0  0  0  0  0  0  0  0
   15.1324  -14.8122   16.2348 C   0  0  0  0  0  0  0  0  0  0  0  0
  2  1  2  0
  3  2  1  0
  4  1  1  0
  5  4  2  0
  6  5  1  0
  6  3  2  0
  7  3  1  0
  8  7  2  0
  9  7  1  0
 10  9  1  0
 11 10  1  0
 12 11  2  0
 13 11  1  0
 14 12  1  0
 15 13  2  0
 16 15  1  0
 16 14  2  0
 17 16  1  0
 18 17  1  0
 18 19  1  1
 20 18  1  0
 21 20  1  0
 22 21  1  0
 22 23  1  1
 24 22  1  0
 25 24  1  0
 26 25  1  0
 27 26  1  0
 28 27  1  0
 29 28  1  0
 30 29  1  0
 31 30  1  0
 32 31  1  0
 33 32  1  0
 34 33  1  0
M  END
>  <SMILES>  (20) 
CCCCCCCCCCCC(F)CCC(C)Oc1ccc(NNC(=O)c2ccccc2)nn1

>  <scaffold>  (20) 
pyrazine

$$$$

     RDKit          3D

 13 14  0  0  0  0  0  0  0  0999 V2000
    0.0000   -0.0000    0.0000 C   0  0  0  0  0  0  0  0  0  0  0  0
    0.0000   -0.0000    1.3862 C   0  0  0  0  0  0  0  0  0  0  0  0
    1.1281    0.0000    2.0794 N   0  0  0  0  0  0  0  0  0  0  0  0
    1.1130    0.0000   -0.7172 N   0  0  0  0  0  0  0  0  0  0  0  0
    2.2649    0.0566   -0.0514 C   0  0  0  0  0  0  0  0  0  0  0  0
    2.2642    0.1126    1.3416 C   0  0  0  0  0  0  0  0  0  0  0  0
    3.7637   -0.0032   -0.9389 S   0  0  0  0  0  0  0  0  0  0  0  0
    3.2107   -0.0680   -2.6331 C   0  0  0  0  0  0  0  0  0  0  0  0
    2.4487    0.9448   -3.1942 C   0  0  0  0  0  0  0  0  0  0  0  0
    3.6458   -1.1267   -3.4149 C   0  0  0  0  0  0  0  0  0  0  0  0
    2.0860    0.8741   -4.5220 C   0  0  0  0  0  0  0  0  0  0  0  0
    3.2822   -1.1925   -4.7509 C   0  0  0  0  0  0  0  0  0  0  0  0
    2.5327   -0.1825   -5.3140 C   0  0  0  0  0  0  0  0  0  0  0  0
  2  1  2  0
  3  2  1  0
  4  1  1  0
  5  4  2  0
  6  5  1  0
  6  3  2  0
  7  5  1  0
  8  7  1  0
  9  8  2  0
 10  8  1  0
 11  9  1  0
 12 10  2  0
 13 12  1  0
 13 11  2  0
M  END
>  <SMILES>  (21) 
c1ccc(Sc2cnccn2)cc1

>  <scaffold>  (21) 
pyrazine

$$$$

     RDKit          3D

 28 30  0  0  0  0  0  0  0  0999 V2000
    0.0000   -0.0000   -0.0000 C   0  0  0  0  0  0  0  0  0  0  0  0
   -0.0000    0.0000    1.3862 C   0  0  0  0  0  0  0  0  0  0  0  0
    1.1459   -0.0000    2.0646 N   0  0  0  0  0  0  0  0  0  0  0  0
    1.1130   -0.0000   -0.7172 N   0  0  0  0  0  0  0  0  0  0  0  0
    2.2324   -0.0000    0.0041 C   0  0  0  0  0  0  0  0  0  0  0  0
    2.2324   -0.0000    1.4143 C   0  0  0  0  0  0  0  0  0  0  0  0
    3.4029    0.0492   -0.6917 N   0  0  0  0  0  0  0  0  0  0  0  0
    3.5304    0.0968   -2.0164 N   0  0  0  0  0  0  0  0  0  0  0  0
    4.6506    0.1882   -2.6276 C   0  0  0  0  0  0  0  0  0  0  0  0
    4.8369    0.2950   -4.0544 C   0  0  0  0  0  0  0  0  0  0  0  0
    3.6895    0.1769   -4.8374 C   0  0  0  0  0  0  0  0  0  0  0  0
    6.0717    0.5227   -4.6603 C   0  0  0  0  0  0  0  0  0  0  0  0
    3.9091    0.3344   -6.1889 C   0  0  0  0  0  0  0  0  0  0  0  0
    6.2903    0.6809   -6.0119 C   0  0  0  0  0  0  0  0  0  0  0  0
    5.1029    0.5894   -6.8455 C   0  0  0  0  0  0  0  0  0  0  0  0
    5.2621    0.7839   -8.1689 F   0  0  0  0  0  0  0  0  0  0  0  0
    7.4536    0.9497   -6.6355 O   0  0  0  0  0  0  0  0  0  0  0  0
    8.6321    0.7257   -5.9410 C   0  0  0  0  0  0  0  0  0  0  0  0
    9.0019   -0.5077   -5.4067 C   0  0  0  0  0  0  0  0  0  0  0  0
    9.5811    1.7465   -5.9736 C   0  0  0  0  0  0  0  0  0  0  0  0
   10.2077   -0.6940   -4.7658 C   0  0  0  0  0  0  0  0  0  0  0  0
   10.7882    1.5488   -5.3385 C   0  0  0  0  0  0  0  0  0  0  0  0
   11.0821    0.3700   -4.7127 C   0  0  0  0  0  0  0  0  0  0  0  0
   12.2600    0.1503   -4.0157 O   0  0  0  0  0  0  0  0  0  0  0  0
   13.3893    0.6660   -4.5382 C   0  0  0  0  0  0  0  0  0  0  0  0
   13.5241    1.2581   -5.5747 O   0  0  0  0  0  0  0  0  0  0  0  0
   14.5103    0.3727   -3.6235 C   0  0  0  0  0  0  0  0  0  0  0  0
   15.8752    0.3465   -4.3097 C   0  0  0  0  0  0  0  0  0  0  0  0
  2  1  2  0
  3  2  1  0
  4  1  1  0
  5  4  2  0
  6  5  1  0
  6  3  2  0
  7  5  1  0
  8  7  1  0
  9  8  2  0
 10  9  1  0
 11 10  2  0
 12 10  1  0
 13 11  1  0
 14 12  2  0
 15 13  2  0
 15 14  1  0
 16 15  1  0
 17 14  1  0
 18 17  1  0
 19 18  2  0
 20 18  1  0
 21 19  1  0
 22 20  2  0
 23 21  2  0
 23 22  1  0
 24 23  1  0
 25 24  1  0
 26 25  2  0
 27 25  1  0
 28 27  1  0
M  END
>  <SMILES>  (22) 
CCC(=O)Oc1ccc(Oc2cc(C=NNc3cnccn3)ccc2F)cc1

>  <scaffold>  (22) 
pyrazine

$$$$

     RDKit          3D

 20 21  0  0  0  0  0  0  0  0999 V2000
    0.0000   -0.0000   -0.0000 C   0  0  0  0  0  0  0  0  0  0  0  0
    0.0000   -0.0000    1.3862 C   0  0  0  0  0  0  0  0  0  0  0  0
    1.1281    0.0000    2.0794 N   0  0  0  0  0  0  0  0  0  0  0  0
    1.1130   -0.0000   -0.7172 N   0  0  0  0  0  0  0  0  0  0  0  0
    2.2324   -0.0000    0.0041 C   0  0  0  0  0  0  0  0  0  0  0  0
    2.2324    0.0000    1.3982 C   0  0  0  0  0  0  0  0  0  0  0  0
    3.4300    0.0503   -0.7078 N   0  0  0  0  0  0  0  0  0  0  0  0
    3.5590    0.0985   -2.0477 C   0  0  0  0  0  0  0  0  0  0  0  0
    2.6754    0.1065   -2.8514 O   0  0  0  0  0  0  0  0  0  0  0  0
    4.8749    0.0876   -2.5081 N   0  0  0  0  0  0  0  0  0  0  0  0
    6.0202    0.0348   -1.7720 C   0  0  0  0  0  0  0  0  0  0  0  0
    6.0686   -0.0122   -0.5657 O   0  0  0  0  0  0  0  0  0  0  0  0
    7.2423   -0.0172   -2.6875 C   0  0  0  0  0  0  0  0  0  0  0  0
    7.0053   -0.5169   -3.9672 O   0  0  0  0  0  0  0  0  0  0  0  0
    6.7609   -1.8563   -4.1220 C   0  0  0  0  0  0  0  0  0  0  0  0
    6.6590   -2.3278   -5.4386 C   0  0  0  0  0  0  0  0  0  0  0  0
    6.6163   -2.7352   -3.0599 C   0  0  0  0  0  0  0  0  0  0  0  0
    6.4707   -3.6477   -5.7199 C   0  0  0  0  0  0  0  0  0  0  0  0
    6.4246   -4.0779   -3.3461 C   0  0  0  0  0  0  0  0  0  0  0  0
    6.3217   -4.5241   -4.6563 C   0  0  0  0  0  0  0  0  0  0  0  0
  2  1  2  0
  3  2  1  0
  4  1  1  0
  5  4  2  0
  6  5  1  0
  6  3  2  0
  7  5  1  0
  8  7  1  0
  9  8  2  0
 10  8  1  0
 11 10  1  0
 12 11  2  0
 13 11  1  0
 14 13  1  0
 15 14  1  0
 16 15  2  0
 17 15  1  0
 18 16  1  0
 19 17  2  0
 20 18  2  0
 20 19  1  0
M  END
>  <SMILES>  (23) 
O=C(COc1ccccc1)NC(=O)Nc1cnccn1

>  <scaffold>  (23) 
pyrazine

$$$$

     RDKit          3D

 16 17  0  0  0  0  0  0  0  0999 V2000
   -0.0000    0.0000    0.0000 C   0  0  0  0  0  0  0  0  0  0  0  0
   -0.0000    0.0000    1.3941 C   0  0  0  0  0  0  0  0  0  0  0  0
    1.1281    0.0000    2.0873 N   0  0  0  0  0  0  0  0  0  0  0  0
    1.1067    0.0000   -0.7131 N   0  0  0  0  0  0  0  0  0  0  0  0
    2.2261    0.0000    0.0082 C   0  0  0  0  0  0  0  0  0  0  0  0
    2.2261   -0.0000    1.4023 C   0  0  0  0  0  0  0  0  0  0  0  0
    3.3180    0.0480   -0.7526 O   0  0  0  0  0  0  0  0  0  0  0  0
   -1.1904    0.0000    2.0080 O   0  0  0  0  0  0  0  0  0  0  0  0
   -1.4587   -0.0534    3.3269 C   0  0  0  0  0  0  0  0  0  0  0  0
   -0.4612   -0.1153    4.1840 N   0  0  0  0  0  0  0  0  0  0  0  0
   -2.8003   -0.0944    3.7037 C   0  0  0  0  0  0  0  0  0  0  0  0
   -0.7743   -0.2145    5.4746 C   0  0  0  0  0  0  0  0  0  0  0  0
   -3.1949   -0.2028    5.0033 C   0  0  0  0  0  0  0  0  0  0  0  0
   -2.0523   -0.2576    5.9885 C   0  0  0  0  0  0  0  0  0  0  0  0
   -4.6069   -0.3039    5.4511 C   0  0  0  0  0  0  0  0  0  0  0  0
   -2.4136   -0.4047    7.2698 O   0  0  0  0  0  0  0  0  0  0  0  0
  2  1  2  0
  3  2  1  0
  4  1  1  0
  5  4  2  0
  6  5  1  0
  6  3  2  0
  7  5  1  0
  8  2  1  0
  9  8  1  0
 10  9  2  0
 11  9  1  0
 12 10  1  0
 13 11  2  0
 14 13  1  0
 14 12  2  0
 15 13  1  0
 16 14  1  0
M  END
>  <SMILES>  (24) 
Cc1cc(Oc2cnc(O)cn2)ncc1O

>  <scaffold>  (24) 
pyrazine

$$$$

     RDKit          3D

 29 31  0  0  0  0  0  0  0  0999 V2000
    0.0000   -0.0000    0.0000 C   0  0  0  0  0  0  0  0  0  0  0  0
    0.0000   -0.0000    1.3941 C   0  0  0  0  0  0  0  0  0  0  0  0
    1.2364    0.0000    2.0722 C   0  0  0  0  0  0  0  0  0  0  0  0
    1.1922   -0.0586   -0.6891 C   0  0  0  0  0  0  0  0  0  0  0  0
    2.3800   -0.1756   -0.0000 C   0  0  0  0  0  0  0  0  0  0  0  0
    2.3800   -0.1755    1.3782 C   0  0  0  0  0  0  0  0  0  0  0  0
    1.3029    0.1604    3.7668 Cl  0  0  0  0  0  0  0  0  0  0  0  0
   -1.1990    0.0589    2.0872 N   0  0  0  0  0  0  0  0  0  0  0  0
    1.1311    0.0088   -2.4701 S   0  0  0  0  0  6  0  0  0  0  0  0
    2.4777    0.0947   -2.9572 O   0  0  0  0  0  0  0  0  0  0  0  0
    0.1931    0.9777   -2.8825 O   0  0  0  0  0  0  0  0  0  0  0  0
    0.5017   -1.5014   -2.8691 N   0  0  0  0  0  0  0  0  0  0  0  0
   -2.4589   -0.1917    1.6330 C   0  0  0  0  0  0  0  0  0  0  0  0
   -2.7648   -0.5728    0.5356 O   0  0  0  0  0  0  0  0  0  0  0  0
   -3.3336    0.0425    2.6512 O   0  0  0  0  0  0  0  0  0  0  0  0
   -4.7148   -0.0689    2.4979 C   0  0  0  0  0  0  0  0  0  0  0  0
   -5.2632   -1.0743    1.7170 C   0  0  0  0  0  0  0  0  0  0  0  0
   -5.5461    0.8438    3.1456 C   0  0  0  0  0  0  0  0  0  0  0  0
   -6.6432   -1.1750    1.6343 C   0  0  0  0  0  0  0  0  0  0  0  0
   -6.9261    0.7429    3.0630 C   0  0  0  0  0  0  0  0  0  0  0  0
   -7.4704   -0.3316    2.3595 C   0  0  0  0  0  0  0  0  0  0  0  0
   -7.2435   -2.1438    0.8176 N   0  0  0  0  0  0  0  0  0  0  0  0
   -6.7280   -2.9233   -0.1739 C   0  0  0  0  0  0  0  0  0  0  0  0
   -8.5438   -2.4514    0.9092 N   0  0  0  0  0  0  0  0  0  0  0  0
   -7.6978   -3.6266   -0.6634 N   0  0  0  0  0  0  0  0  0  0  0  0
   -8.7993   -3.3090    0.0255 N   0  0  0  0  0  0  0  0  0  0  0  0
  -10.0215   -4.0269   -0.2854 C   0  0  0  0  0  0  0  0  0  0  0  0
  -11.1005   -2.9614   -0.3768 C   0  0  0  0  0  0  0  0  0  0  0  0
  -10.2976   -4.9142    0.9273 C   0  0  0  0  0  0  0  0  0  0  0  0
  2  1  2  0
  3  2  1  0
  4  1  1  0
  5  4  2  0
  6  5  1  0
  6  3  2  0
  7  3  1  0
  8  2  1  0
  9  4  1  0
 10  9  2  0
 11  9  2  0
 12  9  1  0
 13  8  2  0
 14 13  1  0
 15 13  1  0
 16 15  1  0
 17 16  2  0
 18 16  1  0
 19 17  1  0
 20 18  2  0
 21 20  1  0
 21 19  2  0
 22 19  1  0
 23 22  1  0
 24 22  1  0
 25 23  2  0
 26 25  1  0
 26 24  2  0
 27 26  1  0
 28 27  1  0
 29 27  1  0
M  CHG  2  14  -1  26   1
M  END
>  <SMILES>  (25) 
CC(C)[n+]1ncn(-c2cccc(OC([O-])=Nc3cc(S(N)(=O)=O)ccc3Cl)c2)n1

>  <scaffold>  (25) 
pyrazine

$$$$

     RDKit          3D

 36 37  0  0  0  0  0  0  0  0999 V2000
   -0.0272   -0.3595   -0.2035 C   0  0  0  0  0  0  0  0  0  0  0  0
   -0.2257   -0.3634    1.1730 C   0  0  0  0  0  0  0  0  0  0  0  0
    0.7715   -0.1506    2.0176 N   0  0  0  0  0  0  0  0  0  0  0  0
    1.1671   -0.1419   -0.7273 N   0  0  0  0  0  0  0  0  0  0  0  0
    2.1748    0.0747    0.1187 C   0  0  0  0  0  0  0  0  0  0  0  0
    1.9670    0.0678    1.4987 C   0  0  0  0  0  0  0  0  0  0  0  0
    3.5393    0.3283   -0.4440 C   0  0  0  0  0  0  0  0  0  0  0  0
    4.5071    0.5447    0.2482 O   0  0  0  0  0  0  0  0  0  0  0  0
    3.5359    0.2822   -1.8073 N   0  0  0  0  0  0  0  0  0  0  0  0
    4.6347    0.4822   -2.5375 N   0  0  0  0  0  0  0  0  0  0  0  0
    4.5606    0.4171   -3.8104 C   0  0  0  0  0  0  0  0  0  0  0  0
    5.7099    0.6294   -4.6408 C   0  0  0  0  0  0  0  0  0  0  0  0
    6.9227    0.9305   -4.1387 C   0  0  0  0  0  0  0  0  0  0  0  0
    8.1439    1.1737   -4.8721 C   0  0  0  0  0  0  0  0  0  0  0  0
    8.2197    1.0669   -6.2661 C   0  0  0  0  0  0  0  0  0  0  0  0
    9.2912    1.5284   -4.1590 C   0  0  0  0  0  0  0  0  0  0  0  0
    9.4010    1.3088   -6.9500 C   0  0  0  0  0  0  0  0  0  0  0  0
   10.4787    1.7778   -4.8192 C   0  0  0  0  0  0  0  0  0  0  0  0
   10.5269    1.6681   -6.1928 C   0  0  0  0  0  0  0  0  0  0  0  0
   11.6887    1.9084   -6.8326 F   0  0  0  0  0  0  0  0  0  0  0  0
    9.5791    1.2550   -8.2925 O   0  0  0  0  0  0  0  0  0  0  0  0
    8.5528    0.7494   -9.1172 C   0  0  0  0  0  0  0  0  0  0  0  0
    8.4216   -0.7803   -9.0323 C   0  0  2  0  0  0  0  0  0  0  0  0
    9.7280   -1.4198   -9.4942 C   0  0  0  0  0  0  0  0  0  0  0  0
    7.2217   -1.2407   -9.8667 C   0  0  0  0  0  0  0  0  0  0  0  0
    6.8297   -2.6888   -9.6085 C   0  0  0  0  0  0  0  0  0  0  0  0
    5.5579   -3.1262  -10.3245 C   0  0  0  0  0  0  0  0  0  0  0  0
    5.7131   -3.1644  -11.8443 C   0  0  0  0  0  0  0  0  0  0  0  0
    4.5010   -3.8041  -12.5146 C   0  0  0  0  0  0  0  0  0  0  0  0
    4.5857   -3.7782  -14.0397 C   0  0  2  0  0  0  0  0  0  0  0  0
    3.3262   -4.0781  -14.5420 F   0  0  0  0  0  0  0  0  0  0  0  0
    5.5856   -4.7720  -14.6204 C   0  0  0  0  0  0  0  0  0  0  0  0
    5.7016   -4.6476  -16.1386 C   0  0  0  0  0  0  0  0  0  0  0  0
    6.6913   -5.6557  -16.7155 C   0  0  0  0  0  0  0  0  0  0  0  0
    6.8228   -5.5250  -18.2310 C   0  0  0  0  0  0  0  0  0  0  0  0
    7.8033   -6.5252  -18.8061 C   0  0  0  0  0  0  0  0  0  0  0  0
  2  1  2  0
  3  2  1  0
  4  1  1  0
  5  4  2  0
  6  5  1  0
  6  3  2  0
  7  5  1  0
  8  7  2  0
  9  7  1  0
 10  9  1  0
 11 10  2  0
 12 11  1  0
 13 12  2  0
 14 13  1  0
 15 14  2  0
 16 14  1  0
 17 15  1  0
 18 16  2  0
 19 17  2  0
 19 18  1  0
 20 19  1  0
 21 17  1  0
 22 21  1  0
 23 22  1  0
 23 24  1  6
 25 23  1  0
 26 25  1  0
 27 26  1  0
 28 27  1  0
 29 28  1  0
 30 29  1  0
 30 31  1  6
 32 30  1  0
 33 32  1  0
 34 33  1  0
 35 34  1  0
 36 35  1  0
M  END
>  <SMILES>  (26) 
CCCCCC(F)CCCCCC(C)COc1cc(C=CC=NNC(=O)c2cnccn2)ccc1F

>  <scaffold>  (26) 
pyrazine

$$$$

     RDKit          3D

 34 37  0  0  0  0  0  0  0  0999 V2000
    0.0000    0.0000    0.0000 C   0  0  0  0  0  0  0  0  0  0  0  0
   -0.0000    0.0000    1.3862 C   0  0  0  0  0  0  0  0  0  0  0  0
    1.1281   -0.0000    2.0794 N   0  0  0  0  0  0  0  0  0  0  0  0
    1.1130   -0.0000   -0.7172 N   0  0  0  0  0  0  0  0  0  0  0  0
    2.2324   -0.0000    0.0041 C   0  0  0  0  0  0  0  0  0  0  0  0
    2.2324   -0.0000    1.4062 C   0  0  0  0  0  0  0  0  0  0  0  0
    3.4072    0.0516   -0.6045 O   0  0  0  0  0  0  0  0  0  0  0  0
    3.5985   -0.0756   -1.9555 C   0  0  0  0  0  0  0  0  0  0  0  0
    2.8406   -0.9336   -2.7372 C   0  0  0  0  0  0  0  0  0  0  0  0
    4.6741    0.5987   -2.5508 C   0  0  0  0  0  0  0  0  0  0  0  0
    3.0920   -1.0591   -4.0311 N   0  0  0  0  0  0  0  0  0  0  0  0
    4.9320    0.4628   -3.8818 C   0  0  0  0  0  0  0  0  0  0  0  0
    4.0492   -0.3932   -4.6261 C   0  0  0  0  0  0  0  0  0  0  0  0
    4.3082   -0.4521   -5.9388 O   0  0  0  0  0  0  0  0  0  0  0  0
    3.5902   -1.2979   -6.7698 C   0  0  0  0  0  0  0  0  0  0  0  0
    3.1545   -2.5731   -6.4450 C   0  0  0  0  0  0  0  0  0  0  0  0
    3.4065   -0.8157   -8.0648 C   0  0  0  0  0  0  0  0  0  0  0  0
    2.4807   -3.3534   -7.3953 C   0  0  0  0  0  0  0  0  0  0  0  0
    2.7501   -1.5951   -9.0045 C   0  0  0  0  0  0  0  0  0  0  0  0
    2.3030   -2.8667   -8.6810 C   0  0  0  0  0  0  0  0  0  0  0  0
    2.0633   -4.5459   -6.9507 O   0  0  0  0  0  0  0  0  0  0  0  0
    1.4283   -5.4349   -7.8167 C   0  0  0  0  0  0  0  0  0  0  0  0
    1.9627   -5.8175   -9.0371 C   0  0  0  0  0  0  0  0  0  0  0  0
    0.3003   -6.0670   -7.2954 C   0  0  0  0  0  0  0  0  0  0  0  0
    1.3175   -6.7429   -9.8425 C   0  0  0  0  0  0  0  0  0  0  0  0
   -0.3392   -7.0023   -8.1076 C   0  0  2  0  0  0  0  0  0  0  0  0
    0.1238   -7.2501   -9.3535 C   0  0  0  0  0  0  0  0  0  0  0  0
   -1.4542   -7.5990   -7.6666 F   0  0  0  0  0  0  0  0  0  0  0  0
    1.8228   -7.1800  -11.0122 O   0  0  0  0  0  0  0  0  0  0  0  0
    3.0157   -6.6849  -11.5370 C   0  0  0  0  0  0  0  0  0  0  0  0
    2.8193   -5.2953  -12.1411 C   0  0  0  0  0  0  0  0  0  0  0  0
    4.0871   -4.7301  -12.7795 C   0  0  0  0  0  0  0  0  0  0  0  0
    5.1367   -4.3399  -11.7401 C   0  0  0  0  0  0  0  0  0  0  0  0
    6.3594   -3.7315  -12.4252 C   0  0  0  0  0  0  0  0  0  0  0  0
  2  1  2  0
  3  2  1  0
  4  1  1  0
  5  4  2  0
  6  5  1  0
  6  3  2  0
  7  5  1  0
  8  7  1  0
  9  8  2  0
 10  8  1  0
 11  9  1  0
 12 10  2  0
 13 12  1  0
 13 11  2  0
 14 13  1  0
 15 14  1  0
 16 15  2  0
 17 15  1  0
 18 16  1  0
 19 17  2  0
 20 19  1  0
 20 18  2  0
 21 18  1  0
 22 21  1  0
 23 22  2  0
 24 22  1  0
 25 23  1  0
 26 24  1  0
 27 26  1  0
 27 25  2  0
 26 28  1  1
 29 25  1  0
 30 29  1  0
 31 30  1  0
 32 31  1  0
 33 32  1  0
 34 33  1  0
M  END
>  <SMILES>  (27) 
CCCCCOC1=CC(F)CC(Oc2cccc(Oc3ccc(Oc4cnccn4)cn3)c2)=C1

>  <scaffold>  (27) 
pyrazine

$$$$

     RDKit          3D

 22 23  0  0  0  0  0  0  0  0999 V2000
    0.0000    0.0000   -0.0000 C   0  0  0  0  0  0  0  0  0  0  0  0
   -0.0000    0.0000    1.4021 C   0  0  0  0  0  0  0  0  0  0  0  0
    1.1459   -0.0000    2.0806 N   0  0  0  0  0  0  0  0  0  0  0  0
    1.1067    0.0000   -0.7131 N   0  0  0  0  0  0  0  0  0  0  0  0
    2.2325   -0.0000    0.0124 C   0  0  0  0  0  0  0  0  0  0  0  0
    2.2325    0.0000    1.4065 C   0  0  0  0  0  0  0  0  0  0  0  0
   -1.1701    0.0000    2.0055 O   0  0  0  0  0  0  0  0  0  0  0  0
    3.3497    0.0492   -0.7660 N   0  0  0  0  0  0  0  0  0  0  0  0
   -1.2219    0.0517    3.4383 C   0  0  0  0  0  0  0  0  0  0  0  0
   -1.1284    1.4887    3.8941 C   0  0  0  0  0  0  0  0  0  0  0  0
   -2.2236    2.3512    3.8816 C   0  0  0  0  0  0  0  0  0  0  0  0
    0.0779    2.0391    4.3250 C   0  0  0  0  0  0  0  0  0  0  0  0
   -2.1747    3.6963    4.2448 C   0  0  0  0  0  0  0  0  0  0  0  0
    0.1244    3.3610    4.6830 C   0  0  0  0  0  0  0  0  0  0  0  0
   -0.9258    4.1732    4.5799 C   0  0  0  0  0  0  0  0  0  0  0  0
   -0.8120    5.8416    5.1055 Cl  0  0  0  0  0  0  0  0  0  0  0  0
    1.2775    3.9471    5.0590 O   0  0  0  0  0  0  0  0  0  0  0  0
    2.4972    3.2660    5.1791 C   0  0  0  0  0  0  0  0  0  0  0  0
    2.4698    2.1870    6.2605 C   0  0  0  0  0  0  0  0  0  0  0  0
    3.3186    1.3180    6.2330 O   0  0  0  0  0  0  0  0  0  0  0  0
    1.5591    2.3248    7.2222 N   0  0  0  0  0  0  0  0  0  0  0  0
    1.4089    1.4433    8.3651 C   0  0  0  0  0  0  0  0  0  0  0  0
  2  1  2  0
  3  2  1  0
  4  1  1  0
  5  4  2  0
  6  5  1  0
  6  3  2  0
  7  2  1  0
  8  5  1  0
  9  7  1  0
 10  9  1  0
 11 10  2  0
 12 10  1  0
 13 11  1  0
 14 12  2  0
 15 14  1  0
 15 13  2  0
 16 15  1  0
 17 14  1  0
 18 17  1  0
 19 18  1  0
 20 19  2  0
 21 19  1  0
 22 21  1  0
M  END
>  <SMILES>  (28) 
CNC(=O)COc1cc(COc2cnc(N)cn2)ccc1Cl

>  <scaffold>  (28) 
pyrazine

$$$$

     RDKit          3D

 24 26  0  0  0  0  0  0  0  0999 V2000
   -0.0000    0.0000   -0.0000 C   0  0  0  0  0  0  0  0  0  0  0  0
    0.0000    0.0000    1.3941 C   0  0  0  0  0  0  0  0  0  0  0  0
    1.2364   -0.0000    2.0722 C   0  0  0  0  0  0  0  0  0  0  0  0
    1.1922   -0.0586   -0.6891 C   0  0  0  0  0  0  0  0  0  0  0  0
    2.3857   -0.0586    0.0000 C   0  0  0  0  0  0  0  0  0  0  0  0
    2.3857   -0.0586    1.3782 C   0  0  0  0  0  0  0  0  0  0  0  0
    1.2861   -0.0497    3.4487 N   0  0  0  0  0  0  0  0  0  0  0  0
   -1.1922    0.0586    2.0832 N   0  0  0  0  0  0  0  0  0  0  0  0
    2.3151    0.2720    4.3200 C   0  0  0  0  0  0  0  0  0  0  0  0
    3.3483    1.1381    3.9649 C   0  0  0  0  0  0  0  0  0  0  0  0
    2.2549   -0.2530    5.6100 C   0  0  0  0  0  0  0  0  0  0  0  0
    4.2792    1.4200    4.9302 C   0  0  0  0  0  0  0  0  0  0  0  0
    3.1835    0.0361    6.5755 C   0  0  0  0  0  0  0  0  0  0  0  0
    4.2842    0.9131    6.2461 C   0  0  0  0  0  0  0  0  0  0  0  0
    5.2540    1.1823    7.1530 N   0  0  0  0  0  0  0  0  0  0  0  0
    5.3130    0.8690    8.5602 C   0  0  0  0  0  0  0  0  0  0  0  0
    4.3326    1.6426    9.3790 C   0  0  0  0  0  0  0  0  0  0  0  0
    3.4435    1.1979   10.2994 C   0  0  0  0  0  0  0  0  0  0  0  0
    4.2501    3.3686    9.2484 S   0  0  0  0  0  0  0  0  0  0  0  0
    2.7084    2.1925   10.9253 C   0  0  0  0  0  0  0  0  0  0  0  0
    3.0248    3.4300   10.4724 C   0  0  0  0  0  0  0  0  0  0  0  0
    2.4787    4.7583   10.9402 C   0  0  2  0  0  0  0  0  0  0  0  0
    1.3973    4.5639   11.8112 O   0  0  0  0  0  0  0  0  0  0  0  0
    1.9905    5.6207    9.7773 C   0  0  0  0  0  0  0  0  0  0  0  0
  2  1  2  0
  3  2  1  0
  4  1  1  0
  5  4  2  0
  6  5  1  0
  6  3  2  0
  7  3  1  0
  8  2  1  0
  9  7  1  0
 10  9  2  0
 11  9  1  0
 12 10  1  0
 13 11  2  0
 14 12  2  0
 14 13  1  0
 15 14  1  0
 16 15  1  0
 17 16  1  0
 18 17  2  0
 19 17  1  0
 20 18  1  0
 21 20  2  0
 21 19  1  0
 22 21  1  0
 23 22  1  0
 22 24  1  6
M  END
>  <SMILES>  (29) 
CC(O)c1ccc(CNc2ccc(Nc3ccccc3N)cc2)s1

>  <scaffold>  (29) 
pyrazine

$$$$

     RDKit          3D

 15 15  0  0  0  0  0  0  0  0999 V2000
    0.0000   -0.0000   -0.0000 C   0  0  0  0  0  0  0  0  0  0  0  0
   -0.0000   -0.0000    1.3941 C   0  0  0  0  0  0  0  0  0  0  0  0
    1.1281   -0.0000    2.0873 N   0  0  0  0  0  0  0  0  0  0  0  0
    1.1130    0.0000   -0.7172 N   0  0  0  0  0  0  0  0  0  0  0  0
    2.2324    0.0000    0.0041 C   0  0  0  0  0  0  0  0  0  0  0  0
    2.2324   -0.0000    1.3982 C   0  0  0  0  0  0  0  0  0  0  0  0
    3.3244    0.0480   -0.7567 O   0  0  0  0  0  0  0  0  0  0  0  0
    4.5347    0.1009   -0.0349 C   0  0  0  0  0  0  0  0  0  0  0  0
    5.5790    0.2071   -1.1330 C   0  0  0  0  0  0  0  0  0  0  0  0
   -1.1719   -0.0000   -0.7551 N   0  0  0  0  0  0  0  0  0  0  0  0
   -2.4677   -0.0000   -0.3600 C   0  0  0  0  0  0  0  0  0  0  0  0
   -2.7956   -0.0000    0.7957 O   0  0  0  0  0  0  0  0  0  0  0  0
   -3.2638   -0.0524   -1.4263 O   0  0  0  0  0  0  0  0  0  0  0  0
   -4.6982   -0.1215   -1.2866 C   0  0  0  0  0  0  0  0  0  0  0  0
   -5.1109   -1.3766   -0.5192 C   0  0  0  0  0  0  0  0  0  0  0  0
  2  1  2  0
  3  2  1  0
  4  1  1  0
  5  4  2  0
  6  5  1  0
  6  3  2  0
  7  5  1  0
  8  7  1  0
  9  8  1  0
 10  1  1  0
 11 10  1  0
 12 11  2  0
 13 11  1  0
 14 13  1  0
 15 14  1  0
M  END
>  <SMILES>  (30) 
CCOC(=O)Nc1cncc(OCC)n1

>  <scaffold>  (30) 
pyrazine

$$$$

     RDKit          3D

 23 24  0  0  0  0  0  0  0  0999 V2000
    0.0000   -0.0000    0.0000 C   0  0  0  0  0  0  0  0  0  0  0  0
    0.0000    0.0000    1.3941 C   0  0  0  0  0  0  0  0  0  0  0  0
    1.1281    0.0000    2.0873 N   0  0  0  0  0  0  0  0  0  0  0  0
    1.1130   -0.0000   -0.7172 N   0  0  0  0  0  0  0  0  0  0  0  0
    2.2324   -0.0000    0.0041 C   0  0  0  0  0  0  0  0  0  0  0  0
    2.2324   -0.0000    1.3982 C   0  0  0  0  0  0  0  0  0  0  0  0
    3.3756   -0.0503   -0.7923 N   0  0  0  0  0  0  0  0  0  0  0  0
    4.6378   -0.0072   -0.3022 C   0  0  0  0  0  0  0  0  0  0  0  0
    5.0146    0.0786    0.8572 O   0  0  0  0  0  0  0  0  0  0  0  0
    5.6091   -0.1416   -1.4284 C   0  0  0  0  0  0  0  0  0  0  0  0
    5.2129   -0.3767   -2.6617 N   0  0  0  0  0  0  0  0  0  0  0  0
    6.9565    0.0368   -1.0839 C   0  0  0  0  0  0  0  0  0  0  0  0
    6.0397   -0.5501   -3.6813 C   0  0  0  0  0  0  0  0  0  0  0  0
    7.8183   -0.1448   -2.1440 C   0  0  0  0  0  0  0  0  0  0  0  0
    7.3977   -0.4837   -3.4559 C   0  0  0  0  0  0  0  0  0  0  0  0
    9.5515    0.0065   -1.7526 S   0  0  0  0  0  0  0  0  0  0  0  0
    9.6850    1.6513   -0.9262 C   0  0  0  0  0  0  0  0  0  0  0  0
    8.2799   -0.6065   -4.4768 O   0  0  0  0  0  0  0  0  0  0  0  0
    7.8568   -0.8053   -5.7987 C   0  0  0  0  0  0  0  0  0  0  0  0
    8.9740    2.5980   -1.8502 C   0  0  0  0  0  0  0  0  0  0  0  0
    7.8415    2.9661   -1.6085 O   0  0  0  0  0  0  0  0  0  0  0  0
    9.7032    2.9426   -2.9003 O   0  0  0  0  0  0  0  0  0  0  0  0
    9.1217    3.7910   -3.8768 C   0  0  0  0  0  0  0  0  0  0  0  0
  2  1  2  0
  3  2  1  0
  4  1  1  0
  5  4  2  0
  6  5  1  0
  6  3  2  0
  7  5  1  0
  8  7  1  0
  9  8  2  0
 10  8  1  0
 11 10  2  0
 12 10  1  0
 13 11  1  0
 14 12  2  0
 15 14  1  0
 15 13  2  0
 16 14  1  0
 17 16  1  0
 18 15  1  0
 19 18  1  0
 20 17  1  0
 21 20  2  0
 22 20  1  0
 23 22  1  0
M  END
>  <SMILES>  (31) 
COC(=O)CSc1cc(C(=O)Nc2cnccn2)ncc1OC

>  <scaffold>  (31) 
pyrazine

$$$$

     RDKit          3D

 29 31  0  0  0  0  0  0  0  0999 V2000
    0.0000   -0.0000    0.0000 C   0  0  0  0  0  0  0  0  0  0  0  0
   -0.0000    0.0000    1.3941 C   0  0  0  0  0  0  0  0  0  0  0  0
    1.1329    0.0000    2.0648 N   0  0  0  0  0  0  0  0  0  0  0  0
    1.1278    0.1673   -0.6583 N   0  0  0  0  0  0  0  0  0  0  0  0
    2.2690    0.2797    0.0038 C   0  0  0  0  0  0  0  0  0  0  0  0
    2.2204    0.0977    1.3932 C   0  0  0  0  0  0  0  0  0  0  0  0
    3.7001    0.6611   -0.9150 S   0  0  0  0  0  0  0  0  0  0  0  0
    3.4963    0.0752    2.1687 C   0  0  0  0  0  0  0  0  0  0  0  0
    4.5379   -0.4228    1.8368 O   0  0  0  0  0  0  0  0  0  0  0  0
    3.0445    0.5670   -2.6151 C   0  0  0  0  0  0  0  0  0  0  0  0
    3.1656    0.6488    3.3241 O   0  0  0  0  0  0  0  0  0  0  0  0
    4.1335    0.7336    4.3017 C   0  0  0  0  0  0  0  0  0  0  0  0
    3.6186    1.5029    5.3547 C   0  0  0  0  0  0  0  0  0  0  0  0
    5.4309    0.2739    4.3717 C   0  0  0  0  0  0  0  0  0  0  0  0
    4.4726    1.6138    6.4107 C   0  0  0  0  0  0  0  0  0  0  0  0
    6.2941    0.3783    5.4410 C   0  0  0  0  0  0  0  0  0  0  0  0
    5.7497    1.0795    6.5748 C   0  0  0  0  0  0  0  0  0  0  0  0
    6.8590    1.2152    8.0970 Br  0  0  0  0  0  0  0  0  0  0  0  0
    2.8207   -0.8718   -3.0780 C   0  0  2  0  0  0  0  0  0  0  0  0
    4.1349   -1.6493   -3.1318 C   0  0  0  0  0  0  0  0  0  0  0  0
    2.1448   -0.8863   -4.4384 C   0  0  0  0  0  0  0  0  0  0  0  0
    2.8235   -0.3878   -5.5494 C   0  0  0  0  0  0  0  0  0  0  0  0
    0.9126   -1.4897   -4.6361 C   0  0  0  0  0  0  0  0  0  0  0  0
    2.2427   -0.3359   -6.7723 C   0  0  0  0  0  0  0  0  0  0  0  0
    0.3123   -1.4345   -5.8843 C   0  0  0  0  0  0  0  0  0  0  0  0
    0.9439   -0.7791   -6.9674 C   0  0  0  0  0  0  0  0  0  0  0  0
    0.4518   -0.6276   -8.2289 O   0  0  0  0  0  0  0  0  0  0  0  0
   -0.8751   -0.9894   -8.5404 C   0  0  0  0  0  0  0  0  0  0  0  0
   -0.9811   -2.4992   -8.7491 C   0  0  0  0  0  0  0  0  0  0  0  0
  2  1  1  0
  3  2  2  0
  4  1  2  0
  5  4  1  0
  6  5  1  0
  6  3  1  0
  7  5  2  0
  8  6  2  0
  9  8  1  0
 10  7  1  0
 11  8  1  0
 12 11  1  0
 13 12  2  0
 14 12  1  0
 15 13  1  0
 16 14  2  0
 17 15  2  0
 17 16  1  0
 18 17  1  0
 19 10  1  0
 19 20  1  6
 21 19  1  0
 22 21  2  0
 23 21  1  0
 24 22  1  0
 25 23  2  0
 26 25  1  0
 26 24  2  0
 27 26  1  0
 28 27  1  0
 29 28  1  0
M  CHG  2   7   1   9  -1
M  END
>  <SMILES>  (32) 
CCOc1ccc(C(C)C[S+]=C2N=CC=NC2=C([O-])Oc2ccc(Br)cc2)cc1

>  <scaffold>  (32) 
pyrazine

$$$$

     RDKit          3D

 34 36  0  0  0  0  0  0  0  0999 V2000
    0.0000   -0.0000   -0.0000 C   0  0  0  0  0  0  0  0  0  0  0  0
   -0.0000   -0.0000    1.3862 C   0  0  0  0  0  0  0  0  0  0  0  0
    1.1281   -0.0000    2.0794 N   0  0  0  0  0  0  0  0  0  0  0  0
    1.1130    0.0000   -0.7172 N   0  0  0  0  0  0  0  0  0  0  0  0
    2.2324   -0.0000    0.0041 C   0  0  0  0  0  0  0  0  0  0  0  0
    2.2324   -0.0000    1.4062 C   0  0  0  0  0  0  0  0  0  0  0  0
    3.3764    0.0480   -0.6759 O   0  0  0  0  0  0  0  0  0  0  0  0
    3.4444    0.0374   -2.0683 C   0  0  0  0  0  0  0  0  0  0  0  0
    4.2131    0.9858   -2.7416 C   0  0  0  0  0  0  0  0  0  0  0  0
    2.7699   -0.9266   -2.8161 C   0  0  0  0  0  0  0  0  0  0  0  0
    4.3922    1.0424   -4.0371 N   0  0  0  0  0  0  0  0  0  0  0  0
    2.9582   -0.8644   -4.1880 C   0  0  0  0  0  0  0  0  0  0  0  0
    3.7869    0.1127   -4.7738 C   0  0  0  0  0  0  0  0  0  0  0  0
    3.9562    0.2358   -6.0736 O   0  0  0  0  0  0  0  0  0  0  0  0
    4.7360    1.2951   -6.6463 C   0  0  0  0  0  0  0  0  0  0  0  0
    6.2318    1.0345   -6.4761 C   0  0  0  0  0  0  0  0  0  0  0  0
    7.1151    2.0650   -7.1965 C   0  0  0  0  0  0  0  0  0  0  0  0
    8.5890    1.7310   -7.0420 C   0  0  0  0  0  0  0  0  0  0  0  0
    9.4254    2.4029   -6.1641 C   0  0  0  0  0  0  0  0  0  0  0  0
    9.1354    0.6877   -7.7426 C   0  0  0  0  0  0  0  0  0  0  0  0
   10.7301    2.0360   -6.0242 C   0  0  0  0  0  0  0  0  0  0  0  0
   10.4473    0.3189   -7.5983 C   0  0  0  0  0  0  0  0  0  0  0  0
   11.2802    0.9795   -6.7487 C   0  0  0  0  0  0  0  0  0  0  0  0
   12.5947    0.6816   -6.6124 N   0  0  0  0  0  0  0  0  0  0  0  0
   13.2660   -0.4751   -7.1758 C   0  0  0  0  0  0  0  0  0  0  0  0
   14.7422   -0.3866   -6.8285 C   0  0  0  0  0  0  0  0  0  0  0  0
   15.5053   -1.5569   -7.4471 C   0  0  0  0  0  0  0  0  0  0  0  0
   16.9791   -1.3929   -7.1172 C   0  0  1  0  0  0  0  0  0  0  0  0
   17.8051   -2.8146   -7.8076 Cl  0  0  0  0  0  0  0  0  0  0  0  0
   17.6090   -0.1121   -7.6624 C   0  0  0  0  0  0  0  0  0  0  0  0
   19.1020   -0.0218   -7.3505 C   0  0  0  0  0  0  0  0  0  0  0  0
   19.7915    1.2160   -7.9221 C   0  0  0  0  0  0  0  0  0  0  0  0
   21.2909    1.2310   -7.6292 C   0  0  0  0  0  0  0  0  0  0  0  0
   21.9407    2.4579   -8.2670 C   0  0  0  0  0  0  0  0  0  0  0  0
  2  1  2  0
  3  2  1  0
  4  1  1  0
  5  4  2  0
  6  5  1  0
  6  3  2  0
  7  5  1  0
  8  7  1  0
  9  8  2  0
 10  8  1  0
 11  9  1  0
 12 10  2  0
 13 12  1  0
 13 11  2  0
 14 13  1  0
 15 14  1  0
 16 15  1  0
 17 16  1  0
 18 17  1  0
 19 18  2  0
 20 18  1  0
 21 19  1  0
 22 20  2  0
 23 22  1  0
 23 21  2  0
 24 23  1  0
 25 24  1  0
 26 25  1  0
 27 26  1  0
 28 27  1  0
 28 29  1  6
 30 28  1  0
 31 30  1  0
 32 31  1  0
 33 32  1  0
 34 33  1  0
M  END
>  <SMILES>  (33) 
CCCCCC(Cl)CCCNc1ccc(CCCOc2ccc(Oc3cnccn3)cn2)cc1

>  <scaffold>  (33) 
pyrazine

$$$$

     RDKit          3D

 24 26  0  0  0  0  0  0  0  0999 V2000
    0.0000    0.0000    0.0000 C   0  0  0  0  0  0  0  0  0  0  0  0
    0.0000   -0.0000    1.3782 C   0  0  0  0  0  0  0  0  0  0  0  0
    1.1459    0.0000    2.0567 N   0  0  0  0  0  0  0  0  0  0  0  0
    1.1194   -0.0000   -0.7213 N   0  0  0  0  0  0  0  0  0  0  0  0
    2.2324   -0.0000   -0.0041 C   0  0  0  0  0  0  0  0  0  0  0  0
    2.2324   -0.0000    1.4061 C   0  0  0  0  0  0  0  0  0  0  0  0
    3.4207   -0.0522   -0.6198 O   0  0  0  0  0  0  0  0  0  0  0  0
    3.6178   -0.0470   -1.9919 C   0  0  0  0  0  0  0  0  0  0  0  0
    2.8165    0.6929   -2.8473 C   0  0  0  0  0  0  0  0  0  0  0  0
    4.6844   -0.7810   -2.5088 C   0  0  0  0  0  0  0  0  0  0  0  0
    3.1393    0.6591   -4.1626 C   0  0  0  0  0  0  0  0  0  0  0  0
    5.0121   -0.8105   -3.8391 C   0  0  0  0  0  0  0  0  0  0  0  0
    4.2483   -0.0225   -4.6616 C   0  0  0  0  0  0  0  0  0  0  0  0
    4.5135   -0.0703   -6.0376 N   0  0  0  0  0  0  0  0  0  0  0  0
    5.1176   -1.0661   -6.7596 C   0  0  0  0  0  0  0  0  0  0  0  0
    5.5263   -0.8632   -7.8858 O   0  0  0  0  0  0  0  0  0  0  0  0
    5.2008   -2.4080   -6.1296 C   0  0  0  0  0  0  0  0  0  0  0  0
    4.1500   -2.9301   -5.4216 C   0  0  0  0  0  0  0  0  0  0  0  0
    6.3335   -3.1808   -6.3324 C   0  0  0  0  0  0  0  0  0  0  0  0
    4.2539   -4.1783   -4.9053 N   0  0  0  0  0  0  0  0  0  0  0  0
    6.4352   -4.4589   -5.8057 C   0  0  0  0  0  0  0  0  0  0  0  0
    5.3191   -5.0374   -5.0696 C   0  0  0  0  0  0  0  0  0  0  0  0
    5.3291   -6.1156   -4.5246 O   0  0  0  0  0  0  0  0  0  0  0  0
    7.5677   -5.1507   -5.9870 F   0  0  0  0  0  0  0  0  0  0  0  0
  2  1  2  0
  3  2  1  0
  4  1  1  0
  5  4  2  0
  6  5  1  0
  6  3  2  0
  7  5  1  0
  8  7  1  0
  9  8  2  0
 10  8  1  0
 11  9  1  0
 12 10  2  0
 13 12  1  0
 13 11  2  0
 14 13  1  0
 15 14  1  0
 16 15  2  0
 17 15  1  0
 18 17  2  0
 19 17  1  0
 20 18  1  0
 21 19  2  0
 22 20  1  0
 22 21  1  0
 23 22  2  0
 24 21  1  0
M  END
>  <SMILES>  (34) 
O=C(Nc1ccc(Oc2cnccn2)cc1)c1c[nH]c(=O)c(F)c1

>  <scaffold>  (34) 
pyrazine

$$$$

     RDKit          3D

 26 27  0  0  0  0  0  0  0  0999 V2000
   -0.0000    0.0000    0.0000 C   0  0  0  0  0  0  0  0  0  0  0  0
   -0.0000    0.0000    1.3862 C   0  0  0  0  0  0  0  0  0  0  0  0
    1.1281   -0.0000    2.0794 N   0  0  0  0  0  0  0  0  0  0  0  0
    1.1130    0.0000   -0.7172 N   0  0  0  0  0  0  0  0  0  0  0  0
    2.2324   -0.0000    0.0041 C   0  0  0  0  0  0  0  0  0  0  0  0
    2.2324   -0.0000    1.4062 C   0  0  0  0  0  0  0  0  0  0  0  0
    3.3830   -0.0483   -0.6798 O   0  0  0  0  0  0  0  0  0  0  0  0
    3.5647    0.2069   -2.0220 C   0  0  0  0  0  0  0  0  0  0  0  0
    2.8205    1.1842   -2.6643 C   0  0  0  0  0  0  0  0  0  0  0  0
    4.5210   -0.5126   -2.7370 C   0  0  0  0  0  0  0  0  0  0  0  0
    3.1336    1.3847   -4.0079 C   0  0  0  0  0  0  0  0  0  0  0  0
    4.8278   -0.3146   -4.0497 C   0  0  0  0  0  0  0  0  0  0  0  0
    4.1537    0.7239   -4.6908 C   0  0  0  0  0  0  0  0  0  0  0  0
    4.5460    0.8845   -6.3609 Cl  0  0  0  0  0  0  0  0  0  0  0  0
    2.2645    2.4143   -4.6712 C   0  0  0  0  0  0  0  0  0  0  0  0
    2.7512    3.1828   -5.4558 O   0  0  0  0  0  0  0  0  0  0  0  0
    0.9831    2.3016   -4.3569 O   0  0  0  0  0  0  0  0  0  0  0  0
   -0.0209    3.1613   -4.9353 C   0  0  1  0  0  0  0  0  0  0  0  0
   -0.1609    2.8462   -6.4237 C   0  0  0  0  0  0  0  0  0  0  0  0
   -1.3571    3.0073   -4.2105 C   0  0  0  0  0  0  0  0  0  0  0  0
   -2.4755    3.9717   -4.6022 C   0  0  0  0  0  0  0  0  0  0  0  0
   -3.7873    3.8094   -3.8013 C   0  0  0  0  0  0  0  0  0  0  0  0
   -4.2951    2.4052   -4.0804 C   0  0  0  0  0  0  0  0  0  0  0  0
   -4.3923    1.5364   -3.2564 O   0  0  0  0  0  0  0  0  0  0  0  0
   -4.7158    2.2559   -5.3351 O   0  0  0  0  0  0  0  0  0  0  0  0
   -5.1690    0.9564   -5.7402 C   0  0  0  0  0  0  0  0  0  0  0  0
  2  1  2  0
  3  2  1  0
  4  1  1  0
  5  4  2  0
  6  5  1  0
  6  3  2  0
  7  5  1  0
  8  7  1  0
  9  8  2  0
 10  8  1  0
 11  9  1  0
 12 10  2  0
 13 12  1  0
 13 11  2  0
 14 13  1  0
 15 11  1  0
 16 15  2  0
 17 15  1  0
 18 17  1  0
 18 19  1  6
 20 18  1  0
 21 20  1  0
 22 21  1  0
 23 22  1  0
 24 23  2  0
 25 23  1  0
 26 25  1  0
M  END
>  <SMILES>  (35) 
COC(=O)CCCC(C)OC(=O)c1cc(Oc2cnccn2)ccc1Cl

>  <scaffold>  (35) 
pyrazine

$$$$

     RDKit          3D

 24 26  0  0  0  0  0  0  0  0999 V2000
   -0.0000   -0.0000   -0.0000 C   0  0  0  0  0  0  0  0  0  0  0  0
   -0.0000    0.0000    1.3862 C   0  0  0  0  0  0  0  0  0  0  0  0
    1.1281   -0.0000    2.0794 N   0  0  0  0  0  0  0  0  0  0  0  0
    1.1453    0.0563   -0.6620 N   0  0  0  0  0  0  0  0  0  0  0  0
    2.2634    0.1112    0.0593 C   0  0  0  0  0  0  0  0  0  0  0  0
    2.2656    0.0520    1.4521 C   0  0  0  0  0  0  0  0  0  0  0  0
    3.7261    0.2456   -0.8602 S   0  0  0  0  0  0  0  0  0  0  0  0
    3.1501    0.1938   -2.5908 C   0  0  0  0  0  0  0  0  0  0  0  0
    2.2884   -0.9867   -2.8517 C   0  0  0  0  0  0  0  0  0  0  0  0
    2.4154   -2.2576   -2.3771 C   0  0  0  0  0  0  0  0  0  0  0  0
    1.2044   -0.8328   -3.6628 N   0  0  0  0  0  0  0  0  0  0  0  0
    1.1909   -3.2974   -3.0271 S   0  0  0  0  0  0  0  0  0  0  0  0
    0.5648   -1.9239   -3.8560 C   0  0  0  0  0  0  0  0  0  0  0  0
   -0.5764   -2.0267   -4.5788 N   0  0  0  0  0  0  0  0  0  0  0  0
   -1.0440   -3.3137   -5.0590 C   0  0  0  0  0  0  0  0  0  0  0  0
   -0.1720   -3.9019   -6.1190 C   0  0  0  0  0  0  0  0  0  0  0  0
    0.6010   -5.0237   -6.0955 C   0  0  0  0  0  0  0  0  0  0  0  0
   -0.0671   -3.2529   -7.2859 O   0  0  0  0  0  0  0  0  0  0  0  0
    1.2506   -5.0849   -7.3275 C   0  0  0  0  0  0  0  0  0  0  0  0
    0.8051   -3.9494   -8.0401 C   0  0  0  0  0  0  0  0  0  0  0  0
    1.1543   -3.4187   -9.3727 C   0  0  0  0  0  0  0  0  0  0  0  0
    1.9592   -3.9380  -10.1090 O   0  0  0  0  0  0  0  0  0  0  0  0
    0.5258   -2.3040   -9.7413 O   0  0  0  0  0  0  0  0  0  0  0  0
    0.8194   -1.6546  -10.9959 C   0  0  0  0  0  0  0  0  0  0  0  0
  2  1  2  0
  3  2  1  0
  4  1  1  0
  5  4  2  0
  6  5  1  0
  6  3  2  0
  7  5  1  0
  8  7  1  0
  9  8  1  0
 10  9  2  0
 11  9  1  0
 12 10  1  0
 13 12  1  0
 13 11  2  0
 14 13  1  0
 15 14  1  0
 16 15  1  0
 17 16  2  0
 18 16  1  0
 19 17  1  0
 20 19  2  0
 20 18  1  0
 21 20  1  0
 22 21  2  0
 23 21  1  0
 24 23  1  0
M  END
>  <SMILES>  (36) 
COC(=O)c1ccc(CNc2nc(CSc3cnccn3)cs2)o1

>  <scaffold>  (36) 
pyrazine

$$$$

     RDKit          3D

 25 27  0  0  0  0  0  0  0  0999 V2000
   -0.0000   -0.0000    0.0000 C   0  0  0  0  0  0  0  0  0  0  0  0
    0.0000   -0.0000    1.3941 C   0  0  0  0  0  0  0  0  0  0  0  0
    1.1281   -0.0000    2.0873 N   0  0  0  0  0  0  0  0  0  0  0  0
    1.1130   -0.0000   -0.7172 N   0  0  0  0  0  0  0  0  0  0  0  0
    2.2324    0.0000    0.0041 C   0  0  0  0  0  0  0  0  0  0  0  0
    2.2324   -0.0000    1.3982 C   0  0  0  0  0  0  0  0  0  0  0  0
    3.3561   -0.0494   -0.7788 N   0  0  0  0  0  0  0  0  0  0  0  0
    4.5606   -0.1093   -0.2322 N   0  0  0  0  0  0  0  0  0  0  0  0
    5.5842   -0.1079   -0.9998 C   0  0  0  0  0  0  0  0  0  0  0  0
    6.9030   -0.1196   -0.4564 C   0  0  0  0  0  0  0  0  0  0  0  0
    7.3723   -0.1335    0.8394 C   0  0  0  0  0  0  0  0  0  0  0  0
    7.9503   -0.0690   -1.3020 O   0  0  0  0  0  0  0  0  0  0  0  0
    8.7574   -0.0862    0.8142 C   0  0  0  0  0  0  0  0  0  0  0  0
    9.0671   -0.0392   -0.5493 C   0  0  0  0  0  0  0  0  0  0  0  0
   10.3078    0.0711   -1.1930 N   0  0  0  0  0  0  0  0  0  0  0  0
   10.3297    0.1354   -2.3992 O   0  0  0  0  0  0  0  0  0  0  0  0
   11.2922    0.0509   -0.4809 O   0  0  0  0  0  0  0  0  0  0  0  0
   12.5745    0.2112   -1.0848 C   0  0  0  0  0  0  0  0  0  0  0  0
   13.0244   -1.0015   -1.8480 C   0  0  0  0  0  0  0  0  0  0  0  0
   13.9321   -0.8164   -2.8898 C   0  0  0  0  0  0  0  0  0  0  0  0
   12.5599   -2.2692   -1.5336 C   0  0  0  0  0  0  0  0  0  0  0  0
   14.4055   -1.8928   -3.5782 C   0  0  0  0  0  0  0  0  0  0  0  0
   13.0415   -3.3641   -2.2341 C   0  0  0  0  0  0  0  0  0  0  0  0
   14.0217   -3.2017   -3.2901 C   0  0  0  0  0  0  0  0  0  0  0  0
   14.6070   -4.3448   -4.0353 C   0  0  0  0  0  0  0  0  0  0  0  0
  2  1  2  0
  3  2  1  0
  4  1  1  0
  5  4  2  0
  6  5  1  0
  6  3  2  0
  7  5  1  0
  8  7  2  0
  9  8  1  0
 10  9  2  0
 11 10  1  0
 12 10  1  0
 13 11  2  0
 14 13  1  0
 14 12  1  0
 15 14  2  0
 16 15  1  0
 17 15  1  0
 18 17  1  0
 19 18  1  0
 20 19  2  0
 21 19  1  0
 22 20  1  0
 23 21  2  0
 24 23  1  0
 24 22  2  0
 25 24  1  0
M  CHG  2  15   1  16  -1
M  END
>  <SMILES>  (37) 
Cc1ccc(CO[N+]([O-])=C2C=CC(=CN=Nc3cnccn3)O2)cc1

>  <scaffold>  (37) 
pyrazine

$$$$

     RDKit          3D

 25 27  0  0  0  0  0  0  0  0999 V2000
   -0.0000    0.0000   -0.0000 C   0  0  0  0  0  0  0  0  0  0  0  0
   -0.0000   -0.0000    1.3941 C   0  0  0  0  0  0  0  0  0  0  0  0
    1.1281    0.0000    2.0873 N   0  0  0  0  0  0  0  0  0  0  0  0
    1.1077    0.1091   -0.7172 N   0  0  0  0  0  0  0  0  0  0  0  0
    2.2530    0.1654   -0.0552 C   0  0  0  0  0  0  0  0  0  0  0  0
    2.3295    0.0549    1.3405 C   0  0  0  0  0  0  0  0  0  0  0  0
   -1.2843   -0.0631    2.1365 C   0  0  0  0  0  0  0  0  0  0  0  0
    3.5072    0.0581    2.0716 N   0  0  0  0  0  0  0  0  0  0  0  0
    3.6187    0.2252    3.4114 C   0  0  0  0  0  0  0  0  0  0  0  0
    2.6767    0.4543    4.1554 O   0  0  0  0  0  0  0  0  0  0  0  0
    4.9722    0.1279    3.9256 C   0  0  0  0  0  0  0  0  0  0  0  0
    5.3482    0.2048    5.2493 C   0  0  0  0  0  0  0  0  0  0  0  0
    6.0009   -0.0602    3.0643 O   0  0  0  0  0  0  0  0  0  0  0  0
    6.7279    0.0053    5.2632 C   0  0  0  0  0  0  0  0  0  0  0  0
    7.0474   -0.1493    3.8954 C   0  0  0  0  0  0  0  0  0  0  0  0
    8.3625   -0.3061    3.1872 C   0  0  0  0  0  0  0  0  0  0  0  0
    9.2693   -0.9378    4.0370 O   0  0  0  0  0  0  0  0  0  0  0  0
    9.0615   -2.2222    4.4145 C   0  0  0  0  0  0  0  0  0  0  0  0
    8.0231   -3.0287    3.9757 C   0  0  0  0  0  0  0  0  0  0  0  0
    9.9687   -2.7952    5.3046 C   0  0  0  0  0  0  0  0  0  0  0  0
    7.9480   -4.3477    4.3952 C   0  0  0  0  0  0  0  0  0  0  0  0
    9.8953   -4.0923    5.7152 C   0  0  0  0  0  0  0  0  0  0  0  0
    8.8883   -4.9248    5.2605 C   0  0  0  0  0  0  0  0  0  0  0  0
    6.8834   -5.0881    3.9769 F   0  0  0  0  0  0  0  0  0  0  0  0
    8.6823   -6.1936    5.6367 O   0  0  0  0  0  0  0  0  0  0  0  0
  2  1  2  0
  3  2  1  0
  4  1  1  0
  5  4  2  0
  6  5  1  0
  6  3  2  0
  7  2  1  0
  8  6  1  0
  9  8  1  0
 10  9  2  0
 11  9  1  0
 12 11  2  0
 13 11  1  0
 14 12  1  0
 15 14  2  0
 15 13  1  0
 16 15  1  0
 17 16  1  0
 18 17  1  0
 19 18  2  0
 20 18  1  0
 21 19  1  0
 22 20  2  0
 23 21  2  0
 23 22  1  0
 24 21  1  0
 25 23  1  0
M  END
>  <SMILES>  (38) 
Cc1cncc(NC(=O)c2ccc(COc3ccc(O)c(F)c3)o2)n1

>  <scaffold>  (38) 
pyrazine

$$$$

     RDKit          3D

 15 16  0  0  0  0  0  0  0  0999 V2000
   -0.0000   -0.0000   -0.0000 C   0  0  0  0  0  0  0  0  0  0  0  0
    0.0000   -0.0000    1.4021 C   0  0  0  0  0  0  0  0  0  0  0  0
    1.1569    0.0000    2.0616 N   0  0  0  0  0  0  0  0  0  0  0  0
    1.1067    0.0000   -0.7131 N   0  0  0  0  0  0  0  0  0  0  0  0
    2.2325   -0.0000    0.0124 C   0  0  0  0  0  0  0  0  0  0  0  0
    2.2325   -0.0000    1.4065 C   0  0  0  0  0  0  0  0  0  0  0  0
   -1.4651   -0.0000    2.3462 S   0  0  0  0  0  0  0  0  0  0  0  0
   -2.7390    0.0668    1.0708 C   0  0  0  0  0  0  0  0  0  0  0  0
   -3.5304   -1.0384    0.8969 C   0  0  0  0  0  0  0  0  0  0  0  0
   -2.9849    1.2451    0.3675 C   0  0  0  0  0  0  0  0  0  0  0  0
   -4.5545   -1.0157   -0.0369 C   0  0  0  0  0  0  0  0  0  0  0  0
   -3.9684    1.3560   -0.5689 C   0  0  0  0  0  0  0  0  0  0  0  0
   -4.7407    0.1025   -0.8345 C   0  0  0  0  0  0  0  0  0  0  0  0
   -5.6640    0.2211   -1.8083 O   0  0  0  0  0  0  0  0  0  0  0  0
   -6.6528   -0.7740   -1.9514 C   0  0  0  0  0  0  0  0  0  0  0  0
  2  1  2  0
  3  2  1  0
  4  1  1  0
  5  4  2  0
  6  5  1  0
  6  3  2  0
  7  2  1  0
  8  7  1  0
  9  8  2  0
 10  8  1  0
 11  9  1  0
 12 10  2  0
 13 12  1  0
 13 11  2  0
 14 13  1  0
 15 14  1  0
M  END
>  <SMILES>  (39) 
COc1ccc(Sc2cnccn2)cc1

>  <scaffold>  (39) 
pyrazine

$$$$

     RDKit          3D

 28 30  0  0  0  0  0  0  0  0999 V2000
    0.0000    0.0000   -0.0000 C   0  0  0  0  0  0  0  0  0  0  0  0
    0.0000    0.0000    1.3941 C   0  0  0  0  0  0  0  0  0  0  0  0
    1.1281   -0.0000    2.0873 N   0  0  0  0  0  0  0  0  0  0  0  0
    1.1130   -0.0000   -0.7172 N   0  0  0  0  0  0  0  0  0  0  0  0
    2.2324    0.0000    0.0041 C   0  0  0  0  0  0  0  0  0  0  0  0
    2.2324   -0.0000    1.3982 C   0  0  0  0  0  0  0  0  0  0  0  0
    3.3306    0.0483   -0.7610 O   0  0  0  0  0  0  0  0  0  0  0  0
    4.4949   -0.2958   -0.0921 C   0  0  0  0  0  0  0  0  0  0  0  0
    4.6813   -1.5586    0.5071 C   0  0  0  0  0  0  0  0  0  0  0  0
    5.5622    0.5680   -0.2114 C   0  0  0  0  0  0  0  0  0  0  0  0
    5.8893   -1.8762    1.1262 C   0  0  0  0  0  0  0  0  0  0  0  0
    6.7560    0.2427    0.3958 C   0  0  0  0  0  0  0  0  0  0  0  0
    6.9366   -0.9564    1.0986 C   0  0  0  0  0  0  0  0  0  0  0  0
    8.5319   -1.4217    2.0181 Br  0  0  0  0  0  0  0  0  0  0  0  0
    3.6568   -2.4200    0.4595 O   0  0  0  0  0  0  0  0  0  0  0  0
    3.5485   -3.5115    1.3200 C   0  0  0  0  0  0  0  0  0  0  0  0
    3.7549   -3.3813    2.6926 C   0  0  0  0  0  0  0  0  0  0  0  0
    3.1204   -4.7048    0.7997 C   0  0  0  0  0  0  0  0  0  0  0  0
    3.5886   -4.4785    3.5100 C   0  0  0  0  0  0  0  0  0  0  0  0
    2.9517   -5.7919    1.6168 C   0  0  0  0  0  0  0  0  0  0  0  0
    3.1578   -5.7025    2.9788 C   0  0  0  0  0  0  0  0  0  0  0  0
    3.0544   -6.7720    3.8166 N   0  0  0  0  0  0  0  0  0  0  0  0
    2.4023   -8.0135    3.4769 C   0  0  0  0  0  0  0  0  0  0  0  0
    0.8836   -7.8486    3.4999 C   0  0  0  0  0  0  0  0  0  0  0  0
    0.1504   -9.0633    2.9331 C   0  0  0  0  0  0  0  0  0  0  0  0
   -1.3590   -8.8261    2.9282 C   0  0  0  0  0  0  0  0  0  0  0  0
   -2.1520  -10.0490    2.4144 C   0  0  0  0  0  0  0  0  0  0  0  0
   -1.9733  -11.1658    3.2567 O   0  0  0  0  0  0  0  0  0  0  0  0
  2  1  2  0
  3  2  1  0
  4  1  1  0
  5  4  2  0
  6  5  1  0
  6  3  2  0
  7  5  1  0
  8  7  1  0
  9  8  1  0
 10  8  2  0
 11  9  2  0
 12 10  1  0
 13 12  2  0
 13 11  1  0
 14 13  1  0
 15  9  1  0
 16 15  1  0
 17 16  2  0
 18 16  1  0
 19 17  1  0
 20 18  2  0
 21 20  1  0
 21 19  2  0
 22 21  1  0
 23 22  1  0
 24 23  1  0
 25 24  1  0
 26 25  1  0
 27 26  1  0
 28 27  1  0
M  END
>  <SMILES>  (40) 
OCCCCCNc1ccc(Oc2cc(Br)ccc2Oc2cnccn2)cc1

>  <scaffold>  (40) 
pyrazine

$$$$

     RDKit          3D

 36 38  0  0  0  0  0  0  0  0999 V2000
   -0.0000    0.0000    0.0000 C   0  0  0  0  0  0  0  0  0  0  0  0
   -0.0000    0.0000    1.3941 C   0  0  0  0  0  0  0  0  0  0  0  0
    1.1281   -0.0000    2.0873 N   0  0  0  0  0  0  0  0  0  0  0  0
    1.1130   -0.0000   -0.7172 N   0  0  0  0  0  0  0  0  0  0  0  0
    2.2324    0.0000    0.0041 C   0  0  0  0  0  0  0  0  0  0  0  0
    2.2324   -0.0000    1.3982 C   0  0  0  0  0  0  0  0  0  0  0  0
    3.7720    0.0677   -1.0685 Br  0  0  0  0  0  0  0  0  0  0  0  0
   -1.1904    0.0000    2.0080 O   0  0  0  0  0  0  0  0  0  0  0  0
   -1.2447   -0.2729    3.3498 C   0  0  0  0  0  0  0  0  0  0  0  0
   -0.4868   -1.2198    3.8619 N   0  0  0  0  0  0  0  0  0  0  0  0
   -2.1919    0.4485    4.0902 C   0  0  0  0  0  0  0  0  0  0  0  0
   -0.6053   -1.4780    5.1398 N   0  0  0  0  0  0  0  0  0  0  0  0
   -2.3145    0.1770    5.4119 C   0  0  0  0  0  0  0  0  0  0  0  0
   -1.4308   -0.8579    5.9567 C   0  0  0  0  0  0  0  0  0  0  0  0
   -1.5522   -1.1886    7.2488 O   0  0  0  0  0  0  0  0  0  0  0  0
   -0.6989   -2.2189    7.7438 C   0  0  0  0  0  0  0  0  0  0  0  0
    0.7279   -1.7538    7.8024 C   0  0  0  0  0  0  0  0  0  0  0  0
    1.7177   -2.4555    7.1320 C   0  0  0  0  0  0  0  0  0  0  0  0
    1.0864   -0.6286    8.5281 C   0  0  0  0  0  0  0  0  0  0  0  0
    3.0117   -1.9603    7.1746 C   0  0  0  0  0  0  0  0  0  0  0  0
    2.3583   -0.1417    8.5704 C   0  0  0  0  0  0  0  0  0  0  0  0
    3.3180   -0.7684    7.8124 C   0  0  0  0  0  0  0  0  0  0  0  0
    4.5337   -0.1563    7.8757 O   0  0  0  0  0  0  0  0  0  0  0  0
    5.5908   -0.5995    7.0405 C   0  0  0  0  0  0  0  0  0  0  0  0
    5.4199   -0.1114    5.6028 C   0  0  0  0  0  0  0  0  0  0  0  0
    6.6371   -0.3688    4.7159 C   0  0  0  0  0  0  0  0  0  0  0  0
    6.8922   -1.8521    4.4526 C   0  0  0  0  0  0  0  0  0  0  0  0
    8.0289   -2.0432    3.4497 C   0  0  0  0  0  0  0  0  0  0  0  0
    8.2877   -3.5102    3.1103 C   0  0  0  0  0  0  0  0  0  0  0  0
    9.3942   -3.6432    2.0651 C   0  0  0  0  0  0  0  0  0  0  0  0
    9.6542   -5.0905    1.6502 C   0  0  0  0  0  0  0  0  0  0  0  0
   10.7287   -5.1639    0.5664 C   0  0  0  0  0  0  0  0  0  0  0  0
   10.9893   -6.6306    0.2270 C   0  0  0  0  0  0  0  0  0  0  0  0
   12.0917   -6.7602   -0.8102 C   0  0  0  0  0  0  0  0  0  0  0  0
   12.3504   -8.2428   -1.0733 C   0  0  0  0  0  0  0  0  0  0  0  0
   13.4176   -8.3171   -2.1518 C   0  0  0  0  0  0  0  0  0  0  0  0
  2  1  2  0
  3  2  1  0
  4  1  1  0
  5  4  2  0
  6  5  1  0
  6  3  2  0
  7  5  1  0
  8  2  1  0
  9  8  1  0
 10  9  2  0
 11  9  1  0
 12 10  1  0
 13 11  1  0
 14 13  2  0
 14 12  1  0
 15 14  1  0
 16 15  1  0
 17 16  1  0
 18 17  2  0
 19 17  1  0
 20 18  1  0
 21 19  2  0
 22 21  1  0
 22 20  2  0
 23 22  1  0
 24 23  1  0
 25 24  1  0
 26 25  1  0
 27 26  1  0
 28 27  1  0
 29 28  1  0
 30 29  1  0
 31 30  1  0
 32 31  1  0
 33 32  1  0
 34 33  1  0
 35 34  1  0
 36 35  1  0
M  CHG  2  11  -1  12   1
M  END
>  <SMILES>  (41) 
CCCCCCCCCCCCCOc1ccc(COC2=C[CH-]C(Oc3cnc(Br)cn3)=N[NH2+]2)cc1

>  <scaffold>  (41) 
pyrazine

$$$$

     RDKit          3D

 28 30  0  0  0  0  0  0  0  0999 V2000
    0.0000    0.0000   -0.0000 C   0  0  0  0  0  0  0  0  0  0  0  0
    0.0000    0.0000    1.3941 C   0  0  0  0  0  0  0  0  0  0  0  0
    1.1281    0.0000    2.0873 N   0  0  0  0  0  0  0  0  0  0  0  0
    1.1130   -0.0000   -0.7172 N   0  0  0  0  0  0  0  0  0  0  0  0
    2.2324    0.0000    0.0041 C   0  0  0  0  0  0  0  0  0  0  0  0
    2.2324   -0.0000    1.3982 C   0  0  0  0  0  0  0  0  0  0  0  0
    3.3271   -0.0544   -0.8575 N   0  0  0  0  0  0  0  0  0  0  0  0
    4.6183   -0.1223   -0.4276 C   0  0  0  0  0  0  0  0  0  0  0  0
    5.0547   -0.1479    0.6987 O   0  0  0  0  0  0  0  0  0  0  0  0
    5.3930   -0.1052   -1.5578 N   0  0  0  0  0  0  0  0  0  0  0  0
    6.7758   -0.1079   -1.4610 C   0  0  0  0  0  0  0  0  0  0  0  0
    7.2296   -0.0360   -2.7109 N   0  0  0  0  0  0  0  0  0  0  0  0
    7.6458   -0.1257   -0.3718 C   0  0  0  0  0  0  0  0  0  0  0  0
    8.5446    0.0198   -2.7399 C   0  0  0  0  0  0  0  0  0  0  0  0
    9.0070   -0.0731   -0.4043 C   0  0  0  0  0  0  0  0  0  0  0  0
    9.4798    0.0156   -1.7276 C   0  0  0  0  0  0  0  0  0  0  0  0
   10.8346    0.1208   -1.6270 O   0  0  0  0  0  0  0  0  0  0  0  0
   11.3621    0.3323   -2.9088 C   0  0  0  0  0  0  0  0  0  0  0  0
   11.1180    1.6675   -3.5911 C   0  0  0  0  0  0  0  0  0  0  0  0
   11.1532    1.9165   -4.7729 O   0  0  0  0  0  0  0  0  0  0  0  0
   10.7638    2.5694   -2.6776 O   0  0  0  0  0  0  0  0  0  0  0  0
   10.5739    3.8477   -3.2618 C   0  0  0  0  0  0  0  0  0  0  0  0
   11.8334    4.4882   -3.7707 C   0  0  0  0  0  0  0  0  0  0  0  0
   11.7588    5.5227   -4.6904 C   0  0  0  0  0  0  0  0  0  0  0  0
   13.0851    4.1079   -3.3368 C   0  0  0  0  0  0  0  0  0  0  0  0
   12.8879    6.1073   -5.2223 C   0  0  0  0  0  0  0  0  0  0  0  0
   14.2084    4.6877   -3.8658 C   0  0  0  0  0  0  0  0  0  0  0  0
   14.1595    5.6740   -4.8498 C   0  0  0  0  0  0  0  0  0  0  0  0
  2  1  2  0
  3  2  1  0
  4  1  1  0
  5  4  2  0
  6  5  1  0
  6  3  2  0
  7  5  1  0
  8  7  1  0
  9  8  2  0
 10  8  1  0
 11 10  1  0
 12 11  2  0
 13 11  1  0
 14 12  1  0
 15 13  2  0
 16 15  1  0
 16 14  2  0
 17 16  1  0
 18 17  1  0
 19 18  1  0
 20 19  2  0
 21 19  1  0
 22 21  1  0
 23 22  1  0
 24 23  2  0
 25 23  1  0
 26 24  1  0
 27 25  2  0
 28 27  1  0
 28 26  2  0
M  END
>  <SMILES>  (42) 
O=C(Nc1ccc(OCC(=O)OCc2ccccc2)cn1)Nc1cnccn1

>  <scaffold>  (42) 
pyrazine

$$$$

     RDKit          3D

 20 21  0  0  0  0  0  0  0  0999 V2000
    0.0000    0.0000    0.0000 C   0  0  0  0  0  0  0  0  0  0  0  0
    0.0000   -0.0000    1.3862 C   0  0  0  0  0  0  0  0  0  0  0  0
    1.1281   -0.0000    2.0794 N   0  0  0  0  0  0  0  0  0  0  0  0
    1.1453   -0.0563   -0.6620 N   0  0  0  0  0  0  0  0  0  0  0  0
    2.2986   -0.0563    0.0038 C   0  0  0  0  0  0  0  0  0  0  0  0
    2.2324    0.0049    1.4030 C   0  0  0  0  0  0  0  0  0  0  0  0
    3.4655   -0.0663   -0.7295 N   0  0  0  0  0  0  0  0  0  0  0  0
    4.6684   -0.1190   -0.1786 N   0  0  0  0  0  0  0  0  0  0  0  0
    5.7270   -0.0802   -0.8960 C   0  0  0  0  0  0  0  0  0  0  0  0
    7.0571   -0.1864   -0.3472 C   0  0  0  0  0  0  0  0  0  0  0  0
    8.0849   -0.0811   -1.1875 N   0  0  0  0  0  0  0  0  0  0  0  0
    7.2850   -0.4034    1.0192 C   0  0  0  0  0  0  0  0  0  0  0  0
    9.3269   -0.1105   -0.7996 C   0  0  0  0  0  0  0  0  0  0  0  0
    8.5925   -0.4332    1.4282 C   0  0  0  0  0  0  0  0  0  0  0  0
    9.6233   -0.2591    0.5628 C   0  0  0  0  0  0  0  0  0  0  0  0
   11.2551   -0.2299    1.0158 Cl  0  0  0  0  0  0  0  0  0  0  0  0
    8.9436   -0.6419    3.1641 S   0  0  0  0  0  6  0  0  0  0  0  0
    7.7632   -0.9727    3.9093 O   0  0  0  0  0  0  0  0  0  0  0  0
   10.1186   -1.4221    3.3770 O   0  0  0  0  0  0  0  0  0  0  0  0
    9.4256    0.8924    3.5947 N   0  0  0  0  0  0  0  0  0  0  0  0
  2  1  2  0
  3  2  1  0
  4  1  1  0
  5  4  2  0
  6  5  1  0
  6  3  2  0
  7  5  1  0
  8  7  1  0
  9  8  2  0
 10  9  1  0
 11 10  2  0
 12 10  1  0
 13 11  1  0
 14 12  2  0
 15 14  1  0
 15 13  2  0
 16 15  1  0
 17 14  1  0
 18 17  2  0
 19 17  2  0
 20 17  1  0
M  END
>  <SMILES>  (43) 
NS(=O)(=O)c1cc(C=NNc2cnccn2)ncc1Cl

>  <scaffold>  (43) 
pyrazine

$$$$

     RDKit          3D

 19 20  0  0  0  0  0  0  0  0999 V2000
   -0.0000    0.0000   -0.0000 C   0  0  0  0  0  0  0  0  0  0  0  0
    0.0000   -0.0000    1.3862 C   0  0  0  0  0  0  0  0  0  0  0  0
    1.1346    0.0000    2.0834 N   0  0  0  0  0  0  0  0  0  0  0  0
    1.1130    0.0000   -0.7172 N   0  0  0  0  0  0  0  0  0  0  0  0
    2.2324    0.0000    0.0041 C   0  0  0  0  0  0  0  0  0  0  0  0
    2.2324    0.0000    1.4062 C   0  0  0  0  0  0  0  0  0  0  0  0
    3.3962    0.0489   -0.6877 O   0  0  0  0  0  0  0  0  0  0  0  0
    3.5276   -0.0220   -2.0578 C   0  0  0  0  0  0  0  0  0  0  0  0
    4.4115    0.8213   -2.7295 C   0  0  0  0  0  0  0  0  0  0  0  0
    2.8152   -0.9825   -2.7587 C   0  0  0  0  0  0  0  0  0  0  0  0
    4.6104    0.7540   -4.0758 C   0  0  0  0  0  0  0  0  0  0  0  0
    3.0150   -1.0467   -4.1129 C   0  0  0  0  0  0  0  0  0  0  0  0
    3.9176   -0.1844   -4.8393 C   0  0  0  0  0  0  0  0  0  0  0  0
    4.1896   -0.2483   -6.1971 N   0  0  0  0  0  0  0  0  0  0  0  0
    3.4657   -0.9081   -7.1780 C   0  0  0  0  0  0  0  0  0  0  0  0
    4.0504   -1.2599   -8.1750 O   0  0  0  0  0  0  0  0  0  0  0  0
    2.1315   -1.0930   -6.9728 N   0  0  0  0  0  0  0  0  0  0  0  0
    1.2069   -1.5390   -7.9985 C   0  0  0  0  0  0  0  0  0  0  0  0
    0.4010   -0.4062   -8.5200 C   0  0  0  0  0  0  0  0  0  0  0  0
  2  1  2  0
  3  2  1  0
  4  1  1  0
  5  4  2  0
  6  5  1  0
  6  3  2  0
  7  5  1  0
  8  7  1  0
  9  8  2  0
 10  8  1  0
 11  9  1  0
 12 10  2  0
 13 12  1  0
 13 11  2  0
 14 13  1  0
 15 14  1  0
 16 15  2  0
 17 15  1  0
 18 17  1  0
 19 18  1  0
M  END
>  <SMILES>  (44) 
CCNC(=O)Nc1ccc(Oc2cnccn2)cc1

>  <scaffold>  (44) 
pyrazine

$$$$

     RDKit          3D

 21 23  0  0  0  0  0  0  0  0999 V2000
   -0.0000   -0.0000   -0.0000 C   0  0  0  0  0  0  0  0  0  0  0  0
    0.0000    0.0000    1.3862 C   0  0  0  0  0  0  0  0  0  0  0  0
    1.1281   -0.0000    2.0794 N   0  0  0  0  0  0  0  0  0  0  0  0
    1.1130   -0.0000   -0.7172 N   0  0  0  0  0  0  0  0  0  0  0  0
    2.2324    0.0000    0.0041 C   0  0  0  0  0  0  0  0  0  0  0  0
    2.2324    0.0000    1.3982 C   0  0  0  0  0  0  0  0  0  0  0  0
    3.4429    0.0533   -0.8392 C   0  0  0  0  0  0  0  0  0  0  0  0
    4.3931    0.7663   -0.2545 N   0  0  0  0  0  0  0  0  0  0  0  0
    3.6002   -0.6223   -2.0486 C   0  0  0  0  0  0  0  0  0  0  0  0
    5.4826    0.8803   -0.9982 C   0  0  0  0  0  0  0  0  0  0  0  0
    4.7382   -0.5022   -2.8309 C   0  0  0  0  0  0  0  0  0  0  0  0
    5.7540    0.3734   -2.2595 C   0  0  0  0  0  0  0  0  0  0  0  0
    4.9263   -1.1388   -4.1120 N   0  0  0  0  0  0  0  0  0  0  0  0
    4.0081   -1.8826   -4.3954 O   0  0  0  0  0  0  0  0  0  0  0  0
    5.8817   -0.9171   -4.8056 O   0  0  0  0  0  0  0  0  0  0  0  0
    6.3837   -1.7095   -5.8261 C   0  0  0  0  0  0  0  0  0  0  0  0
    6.4129   -3.0884   -5.6230 C   0  0  0  0  0  0  0  0  0  0  0  0
    6.8701   -1.1837   -7.0222 C   0  0  0  0  0  0  0  0  0  0  0  0
    6.9376   -3.7935   -6.5931 N   0  0  0  0  0  0  0  0  0  0  0  0
    7.4168   -1.9183   -8.0312 C   0  0  0  0  0  0  0  0  0  0  0  0
    7.4421   -3.3318   -7.7447 C   0  0  0  0  0  0  0  0  0  0  0  0
  2  1  2  0
  3  2  1  0
  4  1  2  0
  5  4  2  0
  6  5  1  0
  6  3  2  0
  7  5  1  0
  8  7  2  0
  9  7  1  0
 10  8  1  0
 11  9  2  0
 12 11  1  0
 12 10  2  0
 13 11  1  0
 14 13  1  0
 15 13  1  0
 16 15  1  0
 17 16  2  0
 18 16  1  0
 19 17  1  0
 20 18  2  0
 21 20  1  0
 21 19  2  0
M  CHG  2   4   1  14  -1
M  END
>  <SMILES>  (45) 
[O-]N(Oc1cccnc1)c1ccnc(C2=[N+]=C=CN=C2)c1

>  <scaffold>  (45) 
pyrazine

$$$$

     RDKit          3D

 28 30  0  0  0  0  0  0  0  0999 V2000
   -0.0000   -0.0000   -0.0000 C   0  0  0  0  0  0  0  0  0  0  0  0
    0.0000    0.0000    1.3941 C   0  0  0  0  0  0  0  0  0  0  0  0
    1.1281    0.0000    2.0873 N   0  0  0  0  0  0  0  0  0  0  0  0
    1.1453   -0.0563   -0.6620 N   0  0  0  0  0  0  0  0  0  0  0  0
    2.2634   -0.1112    0.0593 C   0  0  0  0  0  0  0  0  0  0  0  0
    2.1954   -0.1079    1.4517 C   0  0  0  0  0  0  0  0  0  0  0  0
   -1.1323    0.0000    2.1238 O   0  0  0  0  0  0  0  0  0  0  0  0
    3.5383   -0.2284   -0.7421 C   0  0  0  0  0  0  0  0  0  0  0  0
    3.3917    0.0502   -2.0840 O   0  0  0  0  0  0  0  0  0  0  0  0
   -2.3480   -0.3688    1.6099 C   0  0  0  0  0  0  0  0  0  0  0  0
   -2.5151   -1.5695    0.9216 C   0  0  0  0  0  0  0  0  0  0  0  0
   -3.4535    0.4454    1.8001 C   0  0  0  0  0  0  0  0  0  0  0  0
   -3.7745   -1.9229    0.4628 C   0  0  0  0  0  0  0  0  0  0  0  0
   -4.6984    0.0943    1.3473 C   0  0  0  0  0  0  0  0  0  0  0  0
   -4.8848   -1.1119    0.7377 C   0  0  0  0  0  0  0  0  0  0  0  0
   -3.8909   -3.1925   -0.3146 C   0  0  0  0  0  0  0  0  0  0  0  0
   -6.1082   -1.4782    0.2192 N   0  0  0  0  0  0  0  0  0  0  0  0
   -7.2811   -0.7940    0.3317 C   0  0  0  0  0  0  0  0  0  0  0  0
   -7.4820    0.2866    0.8498 O   0  0  0  0  0  0  0  0  0  0  0  0
   -8.3728   -1.5718   -0.3264 C   0  0  0  0  0  0  0  0  0  0  0  0
   -8.4528   -2.9396   -0.5362 C   0  0  0  0  0  0  0  0  0  0  0  0
   -9.4485   -0.7994   -0.7620 C   0  0  0  0  0  0  0  0  0  0  0  0
   -9.5086   -3.5449   -1.2162 C   0  0  0  0  0  0  0  0  0  0  0  0
  -10.4878   -1.3938   -1.4287 C   0  0  0  0  0  0  0  0  0  0  0  0
  -10.4893   -2.6956   -1.7480 C   0  0  0  0  0  0  0  0  0  0  0  0
   -9.4462   -4.9643   -1.4150 N   0  0  0  0  0  0  0  0  0  0  0  0
   -8.3276   -5.4680   -1.3385 O   0  0  0  0  0  0  0  0  0  0  0  0
  -11.4796   -3.2209   -2.4384 O   0  0  0  0  0  0  0  0  0  0  0  0
  2  1  2  0
  3  2  1  0
  4  1  1  0
  5  4  2  0
  6  5  1  0
  6  3  2  0
  7  2  1  0
  8  5  1  0
  9  8  1  0
 10  7  1  0
 11 10  2  0
 12 10  1  0
 13 11  1  0
 14 12  2  0
 15 14  1  0
 15 13  2  0
 16 13  1  0
 17 15  1  0
 18 17  1  0
 19 18  2  0
 20 18  1  0
 21 20  2  0
 22 20  1  0
 23 21  1  0
 24 22  2  0
 25 24  1  0
 25 23  2  0
 26 23  1  0
 27 26  2  0
 28 25  1  0
M  END
>  <SMILES>  (46) 
Cc1cc(Oc2cnc(CO)cn2)ccc1NC(=O)c1ccc(O)c(N=O)c1

>  <scaffold>  (46) 
pyrazine

$$$$

     RDKit          3D

 26 28  0  0  0  0  0  0  0  0999 V2000
    0.0000    0.0000    0.0000 C   0  0  0  0  0  0  0  0  0  0  0  0
   -0.0000    0.0000    1.3941 C   0  0  0  0  0  0  0  0  0  0  0  0
    1.2181    0.0000    2.0885 C   0  0  0  0  0  0  0  0  0  0  0  0
    1.1652   -0.0000   -0.7508 C   0  0  0  0  0  0  0  0  0  0  0  0
    2.3371    0.0000    0.0043 C   0  0  0  0  0  0  0  0  0  0  0  0
    2.4036   -0.0586    1.3797 C   0  0  0  0  0  0  0  0  0  0  0  0
    1.1681   -0.0500    3.4729 O   0  0  0  0  0  0  0  0  0  0  0  0
    1.2935    0.0531   -2.1063 O   0  0  0  0  0  0  0  0  0  0  0  0
    0.0860   -0.0070   -2.8005 C   0  0  0  0  0  0  0  0  0  0  0  0
    2.3569    0.0804    4.2200 C   0  0  0  0  0  0  0  0  0  0  0  0
   -0.6835   -1.3123   -2.6046 C   0  0  0  0  0  0  0  0  0  0  0  0
   -0.1364   -2.2921   -2.1571 O   0  0  0  0  0  0  0  0  0  0  0  0
   -1.9949   -1.2835   -2.9732 N   0  0  0  0  0  0  0  0  0  0  0  0
   -2.9372   -2.2893   -2.9772 C   0  0  0  0  0  0  0  0  0  0  0  0
   -4.1812   -2.1527   -3.4098 N   0  0  0  0  0  0  0  0  0  0  0  0
   -2.7300   -3.6050   -2.5140 C   0  0  0  0  0  0  0  0  0  0  0  0
   -4.8349   -3.3365   -3.3291 O   0  0  0  0  0  0  0  0  0  0  0  0
   -3.9660   -4.1353   -2.8152 C   0  0  0  0  0  0  0  0  0  0  0  0
   -4.3957   -5.4882   -2.5140 C   0  0  0  0  0  0  0  0  0  0  0  0
   -5.6611   -5.8543   -2.9456 C   0  0  0  0  0  0  0  0  0  0  0  0
   -3.6466   -6.4266   -1.8215 C   0  0  0  0  0  0  0  0  0  0  0  0
   -6.0401   -7.1162   -2.5983 C   0  0  0  0  0  0  0  0  0  0  0  0
   -4.0352   -7.7174   -1.4659 C   0  0  0  0  0  0  0  0  0  0  0  0
   -5.3101   -8.0656   -1.8692 C   0  0  0  0  0  0  0  0  0  0  0  0
   -5.7896   -9.2823   -1.4342 N   0  0  0  0  0  0  0  0  0  0  0  0
   -5.0717  -10.5077   -1.1360 C   0  0  0  0  0  0  0  0  0  0  0  0
  2  1  2  0
  3  2  1  0
  4  1  1  0
  5  4  2  0
  6  5  1  0
  6  3  2  0
  7  3  1  0
  8  4  1  0
  9  8  1  0
 10  7  1  0
 11  9  1  0
 12 11  2  0
 13 11  1  0
 14 13  1  0
 15 14  2  0
 16 14  1  0
 17 15  1  0
 18 17  1  0
 18 16  2  0
 19 18  1  0
 20 19  2  0
 21 19  1  0
 22 20  1  0
 23 21  2  0
 24 22  2  0
 24 23  1  0
 25 24  1  0
 26 25  1  0
M  END
>  <SMILES>  (47) 
CNc1ccc(-c2cc(NC(=O)COc3ccc(OC)cc3)no2)cc1

>  <scaffold>  (47) 
pyrazine

$$$$

     RDKit          3D

 27 28  0  0  0  0  0  0  0  0999 V2000
   -0.0000    0.0000    0.0000 C   0  0  0  0  0  0  0  0  0  0  0  0
   -0.0000    0.0000    1.3862 C   0  0  0  0  0  0  0  0  0  0  0  0
    1.1281    0.0000    2.0794 N   0  0  0  0  0  0  0  0  0  0  0  0
    1.1130    0.0000   -0.7172 N   0  0  0  0  0  0  0  0  0  0  0  0
    2.2324    0.0000    0.0041 C   0  0  0  0  0  0  0  0  0  0  0  0
    2.2324   -0.0000    1.4062 C   0  0  0  0  0  0  0  0  0  0  0  0
    3.7211    0.0625   -0.8808 S   0  0  0  0  0  0  0  0  0  0  0  0
    3.2352    0.1797   -2.6356 C   0  0  0  0  0  0  0  0  0  0  0  0
    2.7953   -1.1612   -3.2211 C   0  0  1  0  0  0  0  0  0  0  0  0
    2.2669   -0.9779   -4.6429 C   0  0  0  0  0  0  0  0  0  0  0  0
    3.9413   -2.1717   -3.2087 C   0  0  0  0  0  0  0  0  0  0  0  0
    3.9411   -3.1966   -2.5689 O   0  0  0  0  0  0  0  0  0  0  0  0
    4.9476   -1.7883   -3.9791 O   0  0  0  0  0  0  0  0  0  0  0  0
    6.1458   -2.5928   -4.1957 C   0  0  0  0  0  0  0  0  0  0  0  0
    7.0053   -1.8073   -5.1850 C   0  0  0  0  0  0  0  0  0  0  0  0
    5.7606   -3.9429   -4.8204 C   0  0  0  0  0  0  0  0  0  0  0  0
    6.8888   -2.7610   -2.8713 C   0  0  0  0  0  0  0  0  0  0  0  0
    7.9221   -3.6970   -2.8769 C   0  0  0  0  0  0  0  0  0  0  0  0
    6.6523   -2.0744   -1.6999 C   0  0  0  0  0  0  0  0  0  0  0  0
    8.5886   -3.9184   -1.6910 C   0  0  0  0  0  0  0  0  0  0  0  0
    7.3178   -2.2958   -0.5135 C   0  0  0  0  0  0  0  0  0  0  0  0
    8.3116   -3.2796   -0.4832 C   0  0  0  0  0  0  0  0  0  0  0  0
    9.0073   -3.6221    0.6371 O   0  0  0  0  0  0  0  0  0  0  0  0
    8.6763   -3.1023    1.9055 C   0  0  0  0  0  0  0  0  0  0  0  0
    9.5829   -3.7042    2.9779 C   0  0  0  0  0  0  0  0  0  0  0  0
    9.3030   -5.1949    3.1619 C   0  0  0  0  0  0  0  0  0  0  0  0
   10.2695   -5.7587    4.2022 C   0  0  0  0  0  0  0  0  0  0  0  0
  2  1  2  0
  3  2  1  0
  4  1  1  0
  5  4  2  0
  6  5  1  0
  6  3  2  0
  7  5  1  0
  8  7  1  0
  9  8  1  0
  9 10  1  6
 11  9  1  0
 12 11  2  0
 13 11  1  0
 14 13  1  0
 15 14  1  0
 16 14  1  0
 17 14  1  0
 18 17  2  0
 19 17  1  0
 20 18  1  0
 21 19  2  0
 22 21  1  0
 22 20  2  0
 23 22  1  0
 24 23  1  0
 25 24  1  0
 26 25  1  0
 27 26  1  0
M  END
>  <SMILES>  (48) 
CCCCOc1ccc(C(C)(C)OC(=O)C(C)CSc2cnccn2)cc1

>  <scaffold>  (48) 
pyrazine

$$$$

     RDKit          3D

 23 25  0  0  0  0  0  0  0  0999 V2000
    0.0000    0.0000    0.0000 C   0  0  0  0  0  0  0  0  0  0  0  0
    0.0000    0.0000    1.3862 C   0  0  0  0  0  0  0  0  0  0  0  0
    1.1394   -0.0000    2.0607 N   0  0  0  0  0  0  0  0  0  0  0  0
    1.1013    0.1085   -0.7131 N   0  0  0  0  0  0  0  0  0  0  0  0
    2.2532    0.1651   -0.0473 C   0  0  0  0  0  0  0  0  0  0  0  0
    2.3298    0.0546    1.3484 C   0  0  0  0  0  0  0  0  0  0  0  0
    3.6707    0.3708   -1.0404 S   0  0  0  0  0  0  0  0  0  0  0  0
    2.9422    0.7703   -2.6766 C   0  0  0  0  0  0  0  0  0  0  0  0
    2.3901    2.1571   -2.6313 C   0  0  0  0  0  0  0  0  0  0  0  0
    3.2084    3.2850   -2.5900 C   0  0  0  0  0  0  0  0  0  0  0  0
    1.0081    2.4346   -2.6732 C   0  0  0  0  0  0  0  0  0  0  0  0
    2.7688    4.5148   -2.5024 N   0  0  0  0  0  0  0  0  0  0  0  0
    0.5434    3.7288   -2.5791 C   0  0  0  0  0  0  0  0  0  0  0  0
    1.4303    4.7165   -2.4477 C   0  0  0  0  0  0  0  0  0  0  0  0
    1.0994    6.0226   -2.3060 N   0  0  0  0  0  0  0  0  0  0  0  0
   -0.2317    6.5050   -2.4795 C   0  0  0  0  0  0  0  0  0  0  0  0
   -0.7873    6.4512   -3.8831 C   0  0  0  0  0  0  0  0  0  0  0  0
   -2.1493    6.5855   -4.1482 C   0  0  0  0  0  0  0  0  0  0  0  0
    0.0101    6.2465   -4.9688 C   0  0  0  0  0  0  0  0  0  0  0  0
   -2.6959    6.5925   -5.4135 C   0  0  0  0  0  0  0  0  0  0  0  0
   -0.5293    6.2542   -6.2200 C   0  0  0  0  0  0  0  0  0  0  0  0
   -1.8373    6.4564   -6.5136 C   0  0  0  0  0  0  0  0  0  0  0  0
   -2.3269    6.5066   -7.7842 N   0  0  0  0  0  0  0  0  0  0  0  0
  2  1  2  0
  3  2  1  0
  4  1  1  0
  5  4  2  0
  6  5  1  0
  6  3  2  0
  7  5  1  0
  8  7  1  0
  9  8  1  0
 10  9  2  0
 11  9  1  0
 12 10  1  0
 13 11  2  0
 14 13  1  0
 14 12  2  0
 15 14  1  0
 16 15  1  0
 17 16  1  0
 18 17  2  0
 19 17  1  0
 20 18  1  0
 21 19  2  0
 22 21  1  0
 22 20  2  0
 23 22  1  0
M  END
>  <SMILES>  (49) 
Nc1ccc(CNc2ccc(CSc3cnccn3)cn2)cc1

>  <scaffold>  (49) 
pyrazine

$$$$

     RDKit          3D

 20 21  0  0  0  0  0  0  0  0999 V2000
   -0.0000    0.0000    0.0000 C   0  0  0  0  0  0  0  0  0  0  0  0
   -0.0000    0.0000    1.3862 C   0  0  0  0  0  0  0  0  0  0  0  0
    1.1281    0.0000    2.0794 N   0  0  0  0  0  0  0  0  0  0  0  0
    1.1453    0.0563   -0.6620 N   0  0  0  0  0  0  0  0  0  0  0  0
    2.2634    0.1112    0.0593 C   0  0  0  0  0  0  0  0  0  0  0  0
    2.1954    0.1079    1.4517 C   0  0  0  0  0  0  0  0  0  0  0  0
    3.5310    0.2277   -0.7376 C   0  0  0  0  0  0  0  0  0  0  0  0
    3.7189   -0.2491   -1.8241 O   0  0  0  0  0  0  0  0  0  0  0  0
    4.4347    0.9291   -0.0409 O   0  0  0  0  0  0  0  0  0  0  0  0
    5.6768    1.2267   -0.5795 C   0  0  0  0  0  0  0  0  0  0  0  0
    6.4183    0.3074   -1.2746 C   0  0  0  0  0  0  0  0  0  0  0  0
    6.1798    2.5127   -0.3366 C   0  0  0  0  0  0  0  0  0  0  0  0
    7.6845    0.6386   -1.7550 C   0  0  0  0  0  0  0  0  0  0  0  0
    7.4398    2.8393   -0.8133 C   0  0  0  0  0  0  0  0  0  0  0  0
    8.2182    1.8953   -1.4732 C   0  0  0  0  0  0  0  0  0  0  0  0
    8.3019   -0.3397   -2.4749 O   0  0  0  0  0  0  0  0  0  0  0  0
    9.6266   -0.2020   -2.8870 C   0  0  0  0  0  0  0  0  0  0  0  0
   10.6334   -0.1453   -1.7392 C   0  0  0  0  0  0  0  0  0  0  0  0
   11.7790    0.1740   -1.9521 O   0  0  0  0  0  0  0  0  0  0  0  0
   10.1665   -0.5311   -0.5532 O   0  0  0  0  0  0  0  0  0  0  0  0
  2  1  2  0
  3  2  1  0
  4  1  1  0
  5  4  2  0
  6  5  1  0
  6  3  2  0
  7  5  1  0
  8  7  2  0
  9  7  1  0
 10  9  1  0
 11 10  2  0
 12 10  1  0
 13 11  1  0
 14 12  2  0
 15 14  1  0
 15 13  2  0
 16 13  1  0
 17 16  1  0
 18 17  1  0
 19 18  2  0
 20 18  1  0
M  END
>  <SMILES>  (50) 
O=C(O)COc1cccc(OC(=O)c2cnccn2)c1

>  <scaffold>  (50) 
pyrazine

$$$$
