
     RDKit          3D

 20 21  0  0  0  0  0  0  0  0999 V2000
    0.0000   -0.0000   -0.0000 C   0  0  0  0  0  0  0  0  0  0  0  0
   -0.0000   -0.0000    1.3941 C   0  0  0  0  0  0  0  0  0  0  0  0
    1.1281   -0.0000    2.0873 N   0  0  0  0  0  0  0  0  0  0  0  0
    1.1130   -0.0000   -0.7172 N   0  0  0  0  0  0  0  0  0  0  0  0
    2.2324   -0.0000    0.0041 C   0  0  0  0  0  0  0  0  0  0  0  0
    2.2324    0.0000    1.4062 C   0  0  0  0  0  0  0  0  0  0  0  0
    3.3306    0.0483   -0.7610 O   0  0  0  0  0  0  0  0  0  0  0  0
    4.5507   -0.2578   -0.1786 C   0  0  0  0  0  0  0  0  0  0  0  0
    4.8156   -1.4430    0.5381 C   0  0  0  0  0  0  0  0  0  0  0  0
    5.5987    0.6150   -0.4265 C   0  0  0  0  0  0  0  0  0  0  0  0
    6.0602   -1.7261    1.0580 C   0  0  0  0  0  0  0  0  0  0  0  0
    6.8643    0.3201    0.1000 C   0  0  0  0  0  0  0  0  0  0  0  0
    7.0774   -0.8306    0.8071 C   0  0  0  0  0  0  0  0  0  0  0  0
    5.3915    1.8194   -1.2846 C   0  0  0  0  0  0  0  0  0  0  0  0
    7.8975    1.2007   -0.2172 N   0  0  0  0  0  0  0  0  0  0  0  0
    8.9346    1.5971    0.5860 C   0  0  0  0  0  0  0  0  0  0  0  0
    9.8419    2.1995    0.0471 O   0  0  0  0  0  0  0  0  0  0  0  0
    8.9023    1.3775    2.0714 C   0  0  0  0  0  0  0  0  0  0  0  0
   10.2643    1.1122    2.7110 C   0  0  0  0  0  0  0  0  0  0  0  0
   10.1835    0.9501    4.2281 C   0  0  0  0  0  0  0  0  0  0  0  0
  2  1  2  0
  3  2  1  0
  4  1  1  0
  5  4  2  0
  6  5  1  0
  6  3  2  0
  7  5  1  0
  8  7  1  0
  9  8  2  0
 10  8  1  0
 11  9  1  0
 12 10  2  0
 13 12  1  0
 13 11  2  0
 14 10  1  0
 15 12  1  0
 16 15  1  0
 17 16  2  0
 18 16  1  0
 19 18  1  0
 20 19  1  0
M  END
>  <SMILES>  (1) 
CCCC(=O)Nc1cccc(Oc2cnccn2)c1C

>  <scaffold>  (1) 
pyrazine

$$$$

     RDKit          3D

 23 25  0  0  0  0  0  0  0  0999 V2000
   -0.0000    0.0000    0.0000 C   0  0  0  0  0  0  0  0  0  0  0  0
    0.0000   -0.0000    1.3941 C   0  0  0  0  0  0  0  0  0  0  0  0
    1.1569    0.0000    2.0536 N   0  0  0  0  0  0  0  0  0  0  0  0
    1.1130   -0.0000   -0.7172 N   0  0  0  0  0  0  0  0  0  0  0  0
    2.2649   -0.0566   -0.0514 C   0  0  0  0  0  0  0  0  0  0  0  0
    2.2642   -0.1126    1.3416 C   0  0  0  0  0  0  0  0  0  0  0  0
   -1.1258    0.0000    2.1196 O   0  0  0  0  0  0  0  0  0  0  0  0
   -2.3844    0.0618    1.5420 C   0  0  0  0  0  0  0  0  0  0  0  0
   -2.7389    1.0903    0.6701 C   0  0  0  0  0  0  0  0  0  0  0  0
   -3.3297   -0.9079    1.9053 C   0  0  0  0  0  0  0  0  0  0  0  0
   -4.0180    1.1369    0.1588 C   0  0  0  0  0  0  0  0  0  0  0  0
   -4.6162   -0.8574    1.3917 C   0  0  0  0  0  0  0  0  0  0  0  0
   -4.9704    0.1987    0.5539 C   0  0  0  0  0  0  0  0  0  0  0  0
   -6.1817    0.3154   -0.0589 O   0  0  0  0  0  0  0  0  0  0  0  0
   -7.2353   -0.5389    0.4083 C   0  0  0  0  0  0  0  0  0  0  0  0
   -8.5145   -0.0300   -0.2339 C   0  0  0  0  0  0  0  0  0  0  0  0
   -9.7218   -0.9538    0.0442 C   0  0  0  0  0  0  0  0  0  0  0  0
  -10.0726   -0.9270    1.5043 C   0  0  0  0  0  0  0  0  0  0  0  0
  -10.8727    0.0807    2.0199 C   0  0  0  0  0  0  0  0  0  0  0  0
   -9.6067   -1.8334    2.4087 C   0  0  0  0  0  0  0  0  0  0  0  0
  -11.1159    0.2215    3.3692 C   0  0  0  0  0  0  0  0  0  0  0  0
   -9.8547   -1.6894    3.7568 C   0  0  0  0  0  0  0  0  0  0  0  0
  -10.5541   -0.6607    4.2668 C   0  0  0  0  0  0  0  0  0  0  0  0
  2  1  2  0
  3  2  1  0
  4  1  1  0
  5  4  2  0
  6  5  1  0
  6  3  2  0
  7  2  1  0
  8  7  1  0
  9  8  2  0
 10  8  1  0
 11  9  1  0
 12 10  2  0
 13 12  1  0
 13 11  2  0
 14 13  1  0
 15 14  1  0
 16 15  1  0
 17 16  1  0
 18 17  1  0
 19 18  2  0
 20 18  1  0
 21 19  1  0
 22 20  2  0
 23 21  2  0
 23 22  1  0
M  END
>  <SMILES>  (2) 
c1ccc(CCCOc2ccc(Oc3cnccn3)cc2)cc1

>  <scaffold>  (2) 
pyrazine

$$$$

     RDKit          3D

 18 19  0  0  0  0  0  0  0  0999 V2000
    0.0000    0.0000   -0.0000 C   0  0  0  0  0  0  0  0  0  0  0  0
   -0.0000   -0.0000    1.3782 C   0  0  0  0  0  0  0  0  0  0  0  0
    1.1459    0.0000    2.0567 N   0  0  0  0  0  0  0  0  0  0  0  0
    1.1130   -0.0000   -0.7172 N   0  0  0  0  0  0  0  0  0  0  0  0
    2.2715    0.0569   -0.0475 C   0  0  0  0  0  0  0  0  0  0  0  0
    2.2708    0.1135    1.3615 C   0  0  0  0  0  0  0  0  0  0  0  0
    3.3748    0.1031   -0.8190 N   0  0  0  0  0  0  0  0  0  0  0  0
    4.7260    0.0050   -0.3226 C   0  0  2  0  0  0  0  0  0  0  0  0
    5.6668    0.5632   -1.3892 C   0  0  0  0  0  0  0  0  0  0  0  0
    5.0490   -1.4125    0.0544 C   0  0  0  0  0  0  0  0  0  0  0  0
    5.6247   -1.8572    1.2157 C   0  0  0  0  0  0  0  0  0  0  0  0
    4.7204   -2.7517   -0.9952 S   0  0  0  0  0  0  0  0  0  0  0  0
    5.8365   -3.2270    1.2263 C   0  0  0  0  0  0  0  0  0  0  0  0
    5.4175   -3.9052    0.1099 C   0  0  0  0  0  0  0  0  0  0  0  0
    5.5579   -5.3535   -0.1395 C   0  0  0  0  0  0  0  0  0  0  0  0
    6.0871   -6.1132    0.6367 O   0  0  0  0  0  0  0  0  0  0  0  0
    5.0838   -5.6947   -1.3278 O   0  0  0  0  0  0  0  0  0  0  0  0
    5.1118   -7.0882   -1.6677 C   0  0  0  0  0  0  0  0  0  0  0  0
  2  1  2  0
  3  2  1  0
  4  1  1  0
  5  4  2  0
  6  5  1  0
  6  3  2  0
  7  5  1  0
  8  7  1  0
  8  9  1  6
 10  8  1  0
 11 10  1  0
 12 10  2  0
 13 11  2  0
 14 12  1  0
 14 13  1  0
 15 14  2  0
 16 15  1  0
 17 15  1  0
 18 17  1  0
M  CHG  2  12   1  16  -1
M  END
>  <SMILES>  (3) 
COC([O-])=C1C=CC(C(C)Nc2cnccn2)=[S+]1

>  <scaffold>  (3) 
pyrazine

$$$$

     RDKit          3D

 33 34  0  0  0  0  0  0  0  0999 V2000
   -0.0000    0.0000    0.0000 C   0  0  0  0  0  0  0  0  0  0  0  0
    0.0000    0.0000    1.3941 C   0  0  0  0  0  0  0  0  0  0  0  0
    1.1281   -0.0000    2.0873 N   0  0  0  0  0  0  0  0  0  0  0  0
    1.1067   -0.0000   -0.7131 N   0  0  0  0  0  0  0  0  0  0  0  0
    2.2261   -0.0000    0.0082 C   0  0  0  0  0  0  0  0  0  0  0  0
    2.2261   -0.0000    1.4023 C   0  0  0  0  0  0  0  0  0  0  0  0
    3.2960    0.0531   -0.8338 O   0  0  0  0  0  0  0  0  0  0  0  0
   -1.4651    0.0000    2.3382 S   0  0  0  0  0  0  0  0  0  0  0  0
    4.3629   -0.7637   -0.4937 C   0  0  0  0  0  0  0  0  0  0  0  0
    4.4245   -1.6319    0.3443 O   0  0  0  0  0  0  0  0  0  0  0  0
    5.3438   -0.4490   -1.3497 N   0  0  0  0  0  0  0  0  0  0  0  0
   -0.7477    0.0707    3.9917 C   0  0  0  0  0  0  0  0  0  0  0  0
   -0.9440   -0.9919    4.8599 C   0  0  0  0  0  0  0  0  0  0  0  0
   -0.0548    1.1669    4.4345 C   0  0  0  0  0  0  0  0  0  0  0  0
   -0.3325   -0.9144    6.1015 C   0  0  0  0  0  0  0  0  0  0  0  0
    0.5522    1.2469    5.6693 C   0  0  0  0  0  0  0  0  0  0  0  0
    0.4945    0.1360    6.4676 C   0  0  0  0  0  0  0  0  0  0  0  0
    6.5386   -1.2422   -1.1917 C   0  0  0  0  0  0  0  0  0  0  0  0
    1.2763    0.1475    8.0031 Cl  0  0  0  0  0  0  0  0  0  0  0  0
    6.7440   -2.0732   -2.4573 C   0  0  0  0  0  0  0  0  0  0  0  0
    5.6336   -3.0970   -2.6878 C   0  0  0  0  0  0  0  0  0  0  0  0
    5.9137   -3.9368   -3.9330 C   0  0  0  0  0  0  0  0  0  0  0  0
    4.8036   -4.9410   -4.2390 C   0  0  0  0  0  0  0  0  0  0  0  0
    5.1057   -5.7156   -5.5209 C   0  0  0  0  0  0  0  0  0  0  0  0
    3.9975   -6.6961   -5.9012 C   0  0  0  0  0  0  0  0  0  0  0  0
    4.3226   -7.4038   -7.2157 C   0  0  0  0  0  0  0  0  0  0  0  0
    3.2137   -8.4092   -7.5221 C   0  0  0  0  0  0  0  0  0  0  0  0
    3.5197   -9.1844   -8.8027 C   0  0  0  0  0  0  0  0  0  0  0  0
    2.4117  -10.2107   -9.0339 C   0  0  0  0  0  0  0  0  0  0  0  0
    2.6996  -11.0516  -10.2767 C   0  0  0  0  0  0  0  0  0  0  0  0
    1.5941  -12.0947  -10.4318 C   0  0  0  0  0  0  0  0  0  0  0  0
    1.8650  -12.9993  -11.6329 C   0  0  0  0  0  0  0  0  0  0  0  0
    0.7696  -14.0490  -11.7108 C   0  0  0  0  0  0  0  0  0  0  0  0
  2  1  2  0
  3  2  1  0
  4  1  1  0
  5  4  2  0
  6  5  1  0
  6  3  2  0
  7  5  1  0
  8  2  1  0
  9  7  1  0
 10  9  2  0
 11  9  1  0
 12  8  1  0
 13 12  2  0
 14 12  1  0
 15 13  1  0
 16 14  2  0
 17 16  1  0
 17 15  2  0
 18 11  1  0
 19 17  1  0
 20 18  1  0
 21 20  1  0
 22 21  1  0
 23 22  1  0
 24 23  1  0
 25 24  1  0
 26 25  1  0
 27 26  1  0
 28 27  1  0
 29 28  1  0
 30 29  1  0
 31 30  1  0
 32 31  1  0
 33 32  1  0
M  END
>  <SMILES>  (4) 
CCCCCCCCCCCCCCCNC(=O)Oc1cnc(Sc2ccc(Cl)cc2)cn1

>  <scaffold>  (4) 
pyrazine

$$$$

     RDKit          3D

 33 35  0  0  0  0  0  0  0  0999 V2000
   -0.0000   -0.0000   -0.0000 C   0  0  0  0  0  0  0  0  0  0  0  0
    0.0000   -0.0000    1.3862 C   0  0  0  0  0  0  0  0  0  0  0  0
    1.1281   -0.0000    2.0794 N   0  0  0  0  0  0  0  0  0  0  0  0
    1.1453    0.0563   -0.6620 N   0  0  0  0  0  0  0  0  0  0  0  0
    2.2634    0.1112    0.0593 C   0  0  0  0  0  0  0  0  0  0  0  0
    2.2656    0.0520    1.4521 C   0  0  0  0  0  0  0  0  0  0  0  0
    3.3680    0.1126   -0.7251 O   0  0  0  0  0  0  0  0  0  0  0  0
    4.5433    0.6399   -0.2811 C   0  0  0  0  0  0  0  0  0  0  0  0
    4.6085    1.8461    0.4148 C   0  0  0  0  0  0  0  0  0  0  0  0
    5.7180    0.0002   -0.6448 C   0  0  0  0  0  0  0  0  0  0  0  0
    5.8256    2.3646    0.8013 C   0  0  0  0  0  0  0  0  0  0  0  0
    6.9330    0.5251   -0.2604 C   0  0  0  0  0  0  0  0  0  0  0  0
    6.9989    1.7038    0.4405 C   0  0  0  0  0  0  0  0  0  0  0  0
    8.1662    2.2726    0.7988 F   0  0  0  0  0  0  0  0  0  0  0  0
    6.0135    3.5018    1.5280 O   0  0  0  0  0  0  0  0  0  0  0  0
    4.8859    4.2935    1.8973 C   0  0  0  0  0  0  0  0  0  0  0  0
    4.3686    5.1274    0.7263 C   0  0  0  0  0  0  0  0  0  0  0  0
    5.4089    6.1414    0.2532 C   0  0  0  0  0  0  0  0  0  0  0  0
    4.8646    6.9096   -0.9501 C   0  0  0  0  0  0  0  0  0  0  0  0
    5.8908    7.9010   -1.4964 C   0  0  0  0  0  0  0  0  0  0  0  0
    5.3258    8.5938   -2.7139 C   0  0  0  0  0  0  0  0  0  0  0  0
    5.7217    8.2745   -4.0033 C   0  0  0  0  0  0  0  0  0  0  0  0
    4.3594    9.5786   -2.5806 C   0  0  0  0  0  0  0  0  0  0  0  0
    5.1386    8.9034   -5.0923 C   0  0  0  0  0  0  0  0  0  0  0  0
    3.7796   10.2029   -3.6639 C   0  0  0  0  0  0  0  0  0  0  0  0
    4.1441    9.8700   -4.9502 C   0  0  0  0  0  0  0  0  0  0  0  0
    3.4666   10.5118   -5.9322 O   0  0  0  0  0  0  0  0  0  0  0  0
    3.7396   10.2260   -7.2942 C   0  0  0  0  0  0  0  0  0  0  0  0
    2.5110   10.7483   -8.0373 C   0  0  0  0  0  0  0  0  0  0  0  0
    2.7309   10.4156   -9.5032 C   0  0  0  0  0  0  0  0  0  0  0  0
    1.5079   11.0038  -10.2050 C   0  0  0  0  0  0  0  0  0  0  0  0
    1.6545   10.6470  -11.6834 C   0  0  0  0  0  0  0  0  0  0  0  0
    0.3872   11.2069  -12.3275 C   0  0  0  0  0  0  0  0  0  0  0  0
  2  1  2  0
  3  2  1  0
  4  1  1  0
  5  4  2  0
  6  5  1  0
  6  3  2  0
  7  5  1  0
  8  7  1  0
  9  8  2  0
 10  8  1  0
 11  9  1  0
 12 10  2  0
 13 12  1  0
 13 11  2  0
 14 13  1  0
 15 11  1  0
 16 15  1  0
 17 16  1  0
 18 17  1  0
 19 18  1  0
 20 19  1  0
 21 20  1  0
 22 21  2  0
 23 21  1  0
 24 22  1  0
 25 23  2  0
 26 25  1  0
 26 24  2  0
 27 26  1  0
 28 27  1  0
 29 28  1  0
 30 29  1  0
 31 30  1  0
 32 31  1  0
 33 32  1  0
M  END
>  <SMILES>  (5) 
CCCCCCOc1ccc(CCCCCOc2cc(Oc3cnccn3)ccc2F)cc1

>  <scaffold>  (5) 
pyrazine

$$$$

     RDKit          3D

 30 33  0  0  0  0  0  0  0  0999 V2000
    0.0000   -0.0000   -0.0000 C   0  0  0  0  0  0  0  0  0  0  0  0
   -0.0000    0.0000    1.3862 C   0  0  0  0  0  0  0  0  0  0  0  0
    1.1459    0.0000    2.0646 N   0  0  0  0  0  0  0  0  0  0  0  0
    1.1130    0.0000   -0.7172 N   0  0  0  0  0  0  0  0  0  0  0  0
    2.2389    0.0000    0.0083 C   0  0  0  0  0  0  0  0  0  0  0  0
    2.2389   -0.0000    1.4184 C   0  0  0  0  0  0  0  0  0  0  0  0
    3.3561   -0.0492   -0.7701 N   0  0  0  0  0  0  0  0  0  0  0  0
    4.5698   -0.0042   -0.2239 N   0  0  0  0  0  0  0  0  0  0  0  0
    5.5913   -0.0992   -0.9883 C   0  0  0  0  0  0  0  0  0  0  0  0
    6.8912    0.0071   -0.3521 C   0  0  0  0  0  0  0  0  0  0  0  0
    7.8797   -0.1585   -1.2405 N   0  0  0  0  0  0  0  0  0  0  0  0
    7.1242    0.1999    0.9925 C   0  0  0  0  0  0  0  0  0  0  0  0
    9.1083   -0.0319   -0.7846 C   0  0  0  0  0  0  0  0  0  0  0  0
    8.4020    0.3373    1.4682 C   0  0  0  0  0  0  0  0  0  0  0  0
    9.4722    0.2568    0.5298 C   0  0  0  0  0  0  0  0  0  0  0  0
   11.0910    0.5001    1.1844 S   0  0  0  0  0  0  0  0  0  0  0  0
   12.0691    0.2051   -0.2898 C   0  0  0  0  0  0  0  0  0  0  0  0
   12.5168   -1.0662   -0.6136 C   0  0  0  0  0  0  0  0  0  0  0  0
   12.5216    1.2847   -1.0322 C   0  0  0  0  0  0  0  0  0  0  0  0
   13.2978   -1.2342   -1.7174 C   0  0  0  0  0  0  0  0  0  0  0  0
   13.3217    1.1076   -2.1502 C   0  0  0  0  0  0  0  0  0  0  0  0
   13.6928   -0.1454   -2.4788 C   0  0  0  0  0  0  0  0  0  0  0  0
   14.4316   -0.4462   -3.5932 O   0  0  0  0  0  0  0  0  0  0  0  0
   14.8137    0.6252   -4.4267 C   0  0  0  0  0  0  0  0  0  0  0  0
   15.5613   -0.0048   -5.6008 C   0  0  0  0  0  0  0  0  0  0  0  0
   16.0139    1.0486   -6.4494 N   0  0  0  0  0  0  0  0  0  0  0  0
   15.3357    1.5499   -7.5196 C   0  0  0  0  0  0  0  0  0  0  0  0
   17.1624    1.8047   -6.2741 C   0  0  0  0  0  0  0  0  0  0  0  0
   15.9813    2.5332   -8.0591 N   0  0  0  0  0  0  0  0  0  0  0  0
   17.1611    2.7388   -7.3089 C   0  0  0  0  0  0  0  0  0  0  0  0
  2  1  2  0
  3  2  1  0
  4  1  1  0
  5  4  2  0
  6  5  1  0
  6  3  2  0
  7  5  1  0
  8  7  1  0
  9  8  2  0
 10  9  1  0
 11 10  2  0
 12 10  1  0
 13 11  1  0
 14 12  2  0
 15 14  1  0
 15 13  2  0
 16 15  1  0
 17 16  1  0
 18 17  2  0
 19 17  1  0
 20 18  1  0
 21 19  2  0
 22 21  1  0
 22 20  2  0
 23 22  1  0
 24 23  1  0
 25 24  1  0
 26 25  1  0
 27 26  1  0
 28 26  1  0
 29 27  2  0
 30 29  1  0
 30 28  2  0
M  END
>  <SMILES>  (6) 
C(=NNc1cnccn1)c1ccc(Sc2ccc(OCCn3ccnc3)cc2)cn1

>  <scaffold>  (6) 
pyrazine

$$$$

     RDKit          3D

 30 32  0  0  0  0  0  0  0  0999 V2000
    0.0000   -0.0000   -0.0000 C   0  0  0  0  0  0  0  0  0  0  0  0
   -0.0000   -0.0000    1.3941 C   0  0  0  0  0  0  0  0  0  0  0  0
    1.1525    0.0000    2.0765 N   0  0  0  0  0  0  0  0  0  0  0  0
    1.1077   -0.1091   -0.7172 N   0  0  0  0  0  0  0  0  0  0  0  0
    2.2596   -0.1657   -0.0514 C   0  0  0  0  0  0  0  0  0  0  0  0
    2.3361   -0.0552    1.3443 C   0  0  0  0  0  0  0  0  0  0  0  0
   -1.2917   -0.0635    2.1407 C   0  0  0  0  0  0  0  0  0  0  0  0
    3.3677   -0.3265   -0.8277 N   0  0  0  0  0  0  0  0  0  0  0  0
    3.5975   -0.0586    2.1274 C   0  0  0  0  0  0  0  0  0  0  0  0
    3.3293   -1.0191   -2.3729 S   0  0  0  0  0  6  0  0  0  0  0  0
    4.7019   -1.2442   -2.7244 O   0  0  0  0  0  0  0  0  0  0  0  0
    2.4674   -0.2038   -3.1499 O   0  0  0  0  0  0  0  0  0  0  0  0
    2.5633   -2.6356   -2.0702 C   0  0  0  0  0  0  0  0  0  0  0  0
    1.3962   -2.9795   -2.7007 C   0  0  0  0  0  0  0  0  0  0  0  0
    3.1418   -3.5748   -1.2178 C   0  0  0  0  0  0  0  0  0  0  0  0
    0.8008   -4.2208   -2.5392 C   0  0  0  0  0  0  0  0  0  0  0  0
    2.5486   -4.8084   -1.0570 C   0  0  0  0  0  0  0  0  0  0  0  0
    1.4613   -5.1488   -1.7492 C   0  0  0  0  0  0  0  0  0  0  0  0
    1.0104   -6.3961   -1.5626 O   0  0  0  0  0  0  0  0  0  0  0  0
   -0.1786   -6.8086   -2.1807 C   0  0  0  0  0  0  0  0  0  0  0  0
   -1.4129   -6.2507   -1.8511 C   0  0  0  0  0  0  0  0  0  0  0  0
   -0.0968   -7.8438   -3.0989 C   0  0  0  0  0  0  0  0  0  0  0  0
   -2.5674   -6.7255   -2.4537 C   0  0  0  0  0  0  0  0  0  0  0  0
   -1.2463   -8.3160   -3.6949 C   0  0  0  0  0  0  0  0  0  0  0  0
   -2.5024   -7.7911   -3.3378 C   0  0  0  0  0  0  0  0  0  0  0  0
   -3.5553   -8.3101   -4.0296 O   0  0  0  0  0  0  0  0  0  0  0  0
   -4.9011   -7.9586   -3.7137 C   0  0  0  0  0  0  0  0  0  0  0  0
   -5.3717   -8.5851   -2.4020 C   0  0  0  0  0  0  0  0  0  0  0  0
   -6.8879   -8.5600   -2.2151 C   0  0  0  0  0  0  0  0  0  0  0  0
   -7.4026   -7.1226   -2.1581 C   0  0  0  0  0  0  0  0  0  0  0  0
  2  1  2  0
  3  2  1  0
  4  1  1  0
  5  4  2  0
  6  5  1  0
  6  3  2  0
  7  2  1  0
  8  5  1  0
  9  6  1  0
 10  8  1  0
 11 10  2  0
 12 10  2  0
 13 10  1  0
 14 13  2  0
 15 13  1  0
 16 14  1  0
 17 15  2  0
 18 17  1  0
 18 16  2  0
 19 18  1  0
 20 19  1  0
 21 20  2  0
 22 20  1  0
 23 21  1  0
 24 22  2  0
 25 24  1  0
 25 23  2  0
 26 25  1  0
 27 26  1  0
 28 27  1  0
 29 28  1  0
 30 29  1  0
M  END
>  <SMILES>  (7) 
CCCCOc1ccc(Oc2ccc(S(=O)(=O)Nc3ncc(C)nc3C)cc2)cc1

>  <scaffold>  (7) 
pyrazine

$$$$

     RDKit          3D

 32 35  0  0  0  0  0  0  0  0999 V2000
    0.0000   -0.0000    0.0000 C   0  0  0  0  0  0  0  0  0  0  0  0
    0.0000   -0.0000    1.3862 C   0  0  0  0  0  0  0  0  0  0  0  0
    1.1281   -0.0000    2.0794 N   0  0  0  0  0  0  0  0  0  0  0  0
    1.1067   -0.0000   -0.7131 N   0  0  0  0  0  0  0  0  0  0  0  0
    2.2261   -0.0000    0.0082 C   0  0  0  0  0  0  0  0  0  0  0  0
    2.2261   -0.0000    1.4103 C   0  0  0  0  0  0  0  0  0  0  0  0
    3.3021   -0.0535   -0.8387 N   0  0  0  0  0  0  0  0  0  0  0  0
    4.5020   -0.0095   -0.2988 N   0  0  0  0  0  0  0  0  0  0  0  0
    5.4599   -0.0159   -1.1136 C   0  0  0  0  0  0  0  0  0  0  0  0
    6.7783    0.0820   -0.5780 C   0  0  0  0  0  0  0  0  0  0  0  0
    7.2508    0.1228    0.6583 N   0  0  0  0  0  0  0  0  0  0  0  0
    7.7749    0.1200   -1.4949 N   0  0  0  0  0  0  0  0  0  0  0  0
    8.6199    0.2760    0.6963 O   0  0  0  0  0  0  0  0  0  0  0  0
    8.7770    0.2578   -0.6640 C   0  0  0  0  0  0  0  0  0  0  0  0
   10.0888    0.4020   -1.2053 C   0  0  0  0  0  0  0  0  0  0  0  0
   11.0878    0.5901   -0.3098 C   0  0  0  0  0  0  0  0  0  0  0  0
   12.4101    0.7904   -0.8060 C   0  0  0  0  0  0  0  0  0  0  0  0
   13.4361    1.0388    0.1897 C   0  0  0  0  0  0  0  0  0  0  0  0
   12.9786    0.8465   -2.0602 C   0  0  0  0  0  0  0  0  0  0  0  0
   13.6191    1.1633    1.5581 C   0  0  0  0  0  0  0  0  0  0  0  0
   14.4986    1.2209   -0.7444 C   0  0  0  0  0  0  0  0  0  0  0  0
   14.2898    1.1110   -2.1293 N   0  0  0  0  0  0  0  0  0  0  0  0
   14.8075    1.3628    2.2270 C   0  0  0  0  0  0  0  0  0  0  0  0
   15.6859    1.4340   -0.0778 C   0  0  0  0  0  0  0  0  0  0  0  0
   15.9416    1.4463    1.4204 C   0  0  0  0  0  0  0  0  0  0  0  0
   15.1798    1.2974   -3.2601 C   0  0  0  0  0  0  0  0  0  0  0  0
   15.0705    0.0131   -4.0805 C   0  0  0  0  0  0  0  0  0  0  0  0
   16.6935    1.5556   -1.0219 O   0  0  0  0  0  0  0  0  0  0  0  0
   17.3679    2.7983   -0.9097 C   0  0  0  0  0  0  0  0  0  0  0  0
   16.5116    4.0160   -1.2908 C   0  0  0  0  0  0  0  0  0  0  0  0
   17.2142    5.3361   -0.9372 C   0  0  0  0  0  0  0  0  0  0  0  0
   16.4266    6.5797   -1.3464 C   0  0  0  0  0  0  0  0  0  0  0  0
  2  1  2  0
  3  2  1  0
  4  1  1  0
  5  4  2  0
  6  5  1  0
  6  3  2  0
  7  5  1  0
  8  7  2  0
  9  8  1  0
 10  9  1  0
 11 10  2  0
 12 10  1  0
 13 11  1  0
 14 13  1  0
 14 12  2  0
 15 14  1  0
 16 15  2  0
 17 16  1  0
 18 17  1  0
 19 17  2  0
 20 18  1  0
 21 18  2  0
 22 21  1  0
 22 19  1  0
 23 20  2  0
 24 21  1  0
 25 24  1  0
 25 23  1  0
 26 22  1  0
 27 26  1  0
 28 24  2  0
 29 28  1  0
 30 29  1  0
 31 30  1  0
 32 31  1  0
M  CHG  2   9  -1  28   1
M  END
>  <SMILES>  (8) 
CCCC[O+]=C1CC=Cc2c(C=Cc3nc([CH-]N=Nc4cnccn4)no3)cn(CC)c21

>  <scaffold>  (8) 
pyrazine

$$$$

     RDKit          3D

 28 31  0  0  0  0  0  0  0  0999 V2000
   -0.0000   -0.0000    0.0000 C   0  0  0  0  0  0  0  0  0  0  0  0
    0.0000   -0.0000    1.3862 C   0  0  0  0  0  0  0  0  0  0  0  0
    1.1281    0.0000    2.0794 N   0  0  0  0  0  0  0  0  0  0  0  0
    1.1130   -0.0000   -0.7172 N   0  0  0  0  0  0  0  0  0  0  0  0
    2.2324   -0.0000    0.0041 C   0  0  0  0  0  0  0  0  0  0  0  0
    2.2324    0.0000    1.3982 C   0  0  0  0  0  0  0  0  0  0  0  0
    3.3764   -0.0480   -0.6759 O   0  0  0  0  0  0  0  0  0  0  0  0
    3.5674    0.0850   -2.0264 C   0  0  0  0  0  0  0  0  0  0  0  0
    4.5985   -0.5815   -2.6868 C   0  0  0  0  0  0  0  0  0  0  0  0
    2.7859    0.9132   -2.8307 C   0  0  0  0  0  0  0  0  0  0  0  0
    4.9238   -0.4871   -4.0228 C   0  0  0  0  0  0  0  0  0  0  0  0
    3.0936    0.9985   -4.1002 N   0  0  0  0  0  0  0  0  0  0  0  0
    4.0643    0.3904   -4.6652 C   0  0  0  0  0  0  0  0  0  0  0  0
    4.3966    0.5054   -6.4135 S   0  0  0  0  0  0  0  0  0  0  0  0
    3.1077    1.7475   -6.6363 C   0  0  0  0  0  0  0  0  0  0  0  0
    2.0880    1.4029   -7.4971 C   0  0  0  0  0  0  0  0  0  0  0  0
    3.2365    3.0182   -6.1182 C   0  0  0  0  0  0  0  0  0  0  0  0
    1.1028    2.3614   -7.5976 C   0  0  0  0  0  0  0  0  0  0  0  0
    2.2584    3.9839   -6.2204 C   0  0  0  0  0  0  0  0  0  0  0  0
    1.0392    3.5438   -6.8923 C   0  0  0  0  0  0  0  0  0  0  0  0
   -0.2227    4.7744   -6.9310 S   0  0  0  0  0  0  0  0  0  0  0  0
   -1.1428    4.1780   -8.3374 C   0  0  0  0  0  0  0  0  0  0  0  0
   -0.6207    4.0938   -9.6187 C   0  0  0  0  0  0  0  0  0  0  0  0
   -2.5095    3.9552   -8.1177 C   0  0  0  0  0  0  0  0  0  0  0  0
   -1.3861    3.6723  -10.6845 C   0  0  0  0  0  0  0  0  0  0  0  0
   -3.2754    3.5386   -9.1954 C   0  0  0  0  0  0  0  0  0  0  0  0
   -2.7158    3.3859  -10.4620 C   0  0  0  0  0  0  0  0  0  0  0  0
   -3.5835    3.0126  -11.4440 O   0  0  0  0  0  0  0  0  0  0  0  0
  2  1  2  0
  3  2  1  0
  4  1  1  0
  5  4  2  0
  6  5  1  0
  6  3  2  0
  7  5  1  0
  8  7  1  0
  9  8  2  0
 10  8  1  0
 11  9  1  0
 12 10  2  0
 13 12  1  0
 13 11  2  0
 14 13  1  0
 15 14  1  0
 16 15  2  0
 17 15  1  0
 18 16  1  0
 19 17  2  0
 20 19  1  0
 20 18  2  0
 21 20  1  0
 22 21  1  0
 23 22  2  0
 24 22  1  0
 25 23  1  0
 26 24  2  0
 27 26  1  0
 27 25  2  0
 28 27  1  0
M  END
>  <SMILES>  (9) 
Oc1ccc(Sc2ccc(Sc3ccc(Oc4cnccn4)cn3)cc2)cc1

>  <scaffold>  (9) 
pyrazine

$$$$

     RDKit          3D

 36 38  0  0  0  0  0  0  0  0999 V2000
    0.0000    0.0000    0.0000 C   0  0  0  0  0  0  0  0  0  0  0  0
   -0.0000   -0.0000    1.3862 C   0  0  0  0  0  0  0  0  0  0  0  0
    1.1281   -0.0000    2.0794 N   0  0  0  0  0  0  0  0  0  0  0  0
    1.1388    0.0559   -0.6583 N   0  0  0  0  0  0  0  0  0  0  0  0
    2.2568    0.1109    0.0631 C   0  0  0  0  0  0  0  0  0  0  0  0
    2.2590    0.0517    1.4559 C   0  0  0  0  0  0  0  0  0  0  0  0
    3.3818    0.2203   -0.7394 N   0  0  0  0  0  0  0  0  0  0  0  0
    4.6680    0.3517   -0.3096 C   0  0  0  0  0  0  0  0  0  0  0  0
    5.0517    0.3958    0.8499 O   0  0  0  0  0  0  0  0  0  0  0  0
    5.6370    0.3841   -1.4565 C   0  0  0  0  0  0  0  0  0  0  0  0
    5.3834    0.1311   -2.7551 C   0  0  0  0  0  0  0  0  0  0  0  0
    6.2212    0.0731   -3.9283 C   0  0  0  0  0  0  0  0  0  0  0  0
    7.4161    0.7877   -3.9996 C   0  0  0  0  0  0  0  0  0  0  0  0
    5.8001   -0.6818   -5.0323 C   0  0  0  0  0  0  0  0  0  0  0  0
    8.0937    0.6946   -5.1781 C   0  0  2  0  0  0  0  0  0  0  0  0
    6.4924   -0.7719   -6.2390 C   0  0  0  0  0  0  0  0  0  0  0  0
    7.7103   -0.0468   -6.3247 C   0  0  0  0  0  0  0  0  0  0  0  0
    9.2575    1.3575   -5.1844 F   0  0  0  0  0  0  0  0  0  0  0  0
    8.4858   -0.2094   -7.4331 N   0  0  0  0  0  0  0  0  0  0  0  0
    5.9116   -1.4963   -7.1937 O   0  0  0  0  0  0  0  0  0  0  0  0
    7.0244    0.6715   -0.9330 C   0  0  0  0  0  0  0  0  0  0  0  0
    7.7217   -0.6321   -0.5474 C   0  0  0  0  0  0  0  0  0  0  0  0
    8.5783   -1.1400   -1.2314 O   0  0  0  0  0  0  0  0  0  0  0  0
    7.2434   -1.1725    0.5448 O   0  0  0  0  0  0  0  0  0  0  0  0
    7.7774   -2.4299    0.9826 C   0  0  0  0  0  0  0  0  0  0  0  0
    7.2862   -3.5305    0.0721 C   0  0  0  0  0  0  0  0  0  0  0  0
    5.9185   -3.7013   -0.0752 C   0  0  0  0  0  0  0  0  0  0  0  0
    8.1682   -4.3269   -0.6415 C   0  0  0  0  0  0  0  0  0  0  0  0
    5.4296   -4.6490   -0.9234 C   0  0  0  0  0  0  0  0  0  0  0  0
    7.6775   -5.2754   -1.4878 C   0  0  0  0  0  0  0  0  0  0  0  0
    6.2617   -5.4798   -1.6724 C   0  0  0  0  0  0  0  0  0  0  0  0
    5.9012   -6.4051   -2.5711 O   0  0  0  0  0  0  0  0  0  0  0  0
    4.5107   -6.5414   -2.8585 C   0  0  0  0  0  0  0  0  0  0  0  0
    4.4198   -7.3705   -4.1386 C   0  0  0  0  0  0  0  0  0  0  0  0
    2.9546   -7.4989   -4.5187 C   0  0  0  0  0  0  0  0  0  0  0  0
    2.9227   -8.2813   -5.8204 C   0  0  0  0  0  0  0  0  0  0  0  0
  2  1  2  0
  3  2  1  0
  4  1  1  0
  5  4  2  0
  6  5  1  0
  6  3  2  0
  7  5  1  0
  8  7  2  0
  9  8  1  0
 10  8  1  0
 11 10  2  0
 12 11  1  0
 13 12  1  0
 14 12  2  0
 15 13  1  0
 16 14  1  0
 17 16  1  0
 17 15  1  0
 15 18  1  1
 19 17  2  0
 20 16  2  0
 21 10  1  0
 22 21  1  0
 23 22  2  0
 24 22  1  0
 25 24  1  0
 26 25  1  0
 27 26  2  0
 28 26  1  0
 29 27  1  0
 30 28  2  0
 31 29  2  0
 31 30  1  0
 32 31  1  0
 33 32  1  0
 34 33  1  0
 35 34  1  0
 36 35  1  0
M  CHG  2   9  -1  20   1
M  END
>  <SMILES>  (10) 
CCCCOc1ccc(COC(=O)CC(=CC2=CC(=[OH+])C(=N)C(F)C2)C([O-])=Nc2cnccn2)cc1

>  <scaffold>  (10) 
pyrazine

$$$$

     RDKit          3D

 14 15  0  0  0  0  0  0  0  0999 V2000
   -0.0000   -0.0000   -0.0000 C   0  0  0  0  0  0  0  0  0  0  0  0
    0.0000   -0.0000    1.3941 C   0  0  0  0  0  0  0  0  0  0  0  0
    1.1281   -0.0000    2.0873 N   0  0  0  0  0  0  0  0  0  0  0  0
    1.1130    0.0000   -0.7172 N   0  0  0  0  0  0  0  0  0  0  0  0
    2.2324    0.0000    0.0041 C   0  0  0  0  0  0  0  0  0  0  0  0
    2.2324    0.0000    1.3982 C   0  0  0  0  0  0  0  0  0  0  0  0
   -1.1836   -0.0000    2.0045 O   0  0  0  0  0  0  0  0  0  0  0  0
    3.3764    0.0480   -0.6759 O   0  0  0  0  0  0  0  0  0  0  0  0
    3.5093   -0.0236   -2.0618 C   0  0  0  0  0  0  0  0  0  0  0  0
    2.7969   -0.9841   -2.7627 C   0  0  0  0  0  0  0  0  0  0  0  0
    4.3451    0.8725   -2.7097 C   0  0  0  0  0  0  0  0  0  0  0  0
    3.0002   -1.0494   -4.1404 C   0  0  0  0  0  0  0  0  0  0  0  0
    4.5472    0.8081   -4.0796 C   0  0  0  0  0  0  0  0  0  0  0  0
    3.9136   -0.2438   -4.8022 C   0  0  0  0  0  0  0  0  0  0  0  0
  2  1  2  0
  3  2  1  0
  4  1  1  0
  5  4  2  0
  6  5  1  0
  6  3  2  0
  7  2  1  0
  8  5  1  0
  9  8  1  0
 10  9  2  0
 11  9  1  0
 12 10  1  0
 13 11  2  0
 14 13  1  0
 14 12  2  0
M  END
>  <SMILES>  (11) 
Oc1cnc(Oc2ccccc2)cn1

>  <scaffold>  (11) 
pyrazine

$$$$

     RDKit          3D

 27 29  0  0  0  0  0  0  0  0999 V2000
   -0.0000    0.0000    0.0000 C   0  0  0  0  0  0  0  0  0  0  0  0
   -0.0000   -0.0000    1.3941 C   0  0  0  0  0  0  0  0  0  0  0  0
    1.1569    0.0000    2.0536 N   0  0  0  0  0  0  0  0  0  0  0  0
    1.1130    0.0000   -0.7172 N   0  0  0  0  0  0  0  0  0  0  0  0
    2.2966    0.0000   -0.1069 C   0  0  0  0  0  0  0  0  0  0  0  0
    2.2966   -0.0000    1.2873 C   0  0  0  0  0  0  0  0  0  0  0  0
   -1.1519   -0.0000    2.1364 N   0  0  0  0  0  0  0  0  0  0  0  0
   -2.3654   -0.0000    1.6455 N   0  0  0  0  0  0  0  0  0  0  0  0
   -3.4205   -0.0464    2.3806 C   0  0  0  0  0  0  0  0  0  0  0  0
    3.5281   -0.0542   -0.9648 C   0  0  0  0  0  0  0  0  0  0  0  0
   -4.7210   -0.0956    1.7967 C   0  0  0  0  0  0  0  0  0  0  0  0
   -5.0267   -0.1007    0.4528 C   0  0  0  0  0  0  0  0  0  0  0  0
   -6.1098   -0.2201    2.8424 S   0  0  0  0  0  0  0  0  0  0  0  0
   -6.4149   -0.2111    0.2892 C   0  0  0  0  0  0  0  0  0  0  0  0
   -7.1334   -0.2857    1.4455 C   0  0  0  0  0  0  0  0  0  0  0  0
   -8.6374   -0.4667    1.5596 C   0  0  2  0  0  0  0  0  0  0  0  0
   -9.1264   -0.2316    2.8438 O   0  0  0  0  0  0  0  0  0  0  0  0
   -9.0139   -1.8701    1.1161 C   0  0  0  0  0  0  0  0  0  0  0  0
   -8.5903   -2.9705    1.8598 C   0  0  0  0  0  0  0  0  0  0  0  0
   -9.7795   -2.0811   -0.0298 C   0  0  0  0  0  0  0  0  0  0  0  0
   -8.8670   -4.2708    1.4673 C   0  0  0  0  0  0  0  0  0  0  0  0
  -10.0546   -3.3740   -0.4199 C   0  0  0  0  0  0  0  0  0  0  0  0
   -9.5830   -4.5251    0.3080 C   0  0  0  0  0  0  0  0  0  0  0  0
   -9.9609   -5.7510   -0.1514 O   0  0  0  0  0  0  0  0  0  0  0  0
   -9.4472   -6.9131    0.4969 C   0  0  0  0  0  0  0  0  0  0  0  0
   -8.0038   -7.2056    0.0901 C   0  0  0  0  0  0  0  0  0  0  0  0
   -7.4453   -8.5332    0.6504 C   0  0  0  0  0  0  0  0  0  0  0  0
  2  1  2  0
  3  2  1  0
  4  1  1  0
  5  4  2  0
  6  5  1  0
  6  3  2  0
  7  2  1  0
  8  7  1  0
  9  8  2  0
 10  5  1  0
 11  9  1  0
 12 11  2  0
 13 11  1  0
 14 12  1  0
 15 14  2  0
 15 13  1  0
 16 15  1  0
 16 17  1  1
 18 16  1  0
 19 18  2  0
 20 18  1  0
 21 19  1  0
 22 20  2  0
 23 22  1  0
 23 21  2  0
 24 23  1  0
 25 24  1  0
 26 25  1  0
 27 26  1  0
M  END
>  <SMILES>  (12) 
CCCOc1ccc(C(O)c2ccc(C=NNc3cnc(C)cn3)s2)cc1

>  <scaffold>  (12) 
pyrazine

$$$$

     RDKit          3D

 29 31  0  0  0  0  0  0  0  0999 V2000
   -0.0000    0.0000    0.0000 C   0  0  0  0  0  0  0  0  0  0  0  0
    0.0000    0.0000    1.4021 C   0  0  0  0  0  0  0  0  0  0  0  0
    1.1459   -0.0000    2.0806 N   0  0  0  0  0  0  0  0  0  0  0  0
    1.1067    0.0000   -0.7131 N   0  0  0  0  0  0  0  0  0  0  0  0
    2.2261    0.0000    0.0082 C   0  0  0  0  0  0  0  0  0  0  0  0
    2.2261   -0.0000    1.4023 C   0  0  0  0  0  0  0  0  0  0  0  0
   -1.1701    0.0000    2.0055 O   0  0  0  0  0  0  0  0  0  0  0  0
    3.2838   -0.0525   -0.8243 O   0  0  0  0  0  0  0  0  0  0  0  0
    4.4761    0.3237   -0.2633 C   0  0  0  0  0  0  0  0  0  0  0  0
    4.6919    1.3960    0.6010 C   0  0  0  0  0  0  0  0  0  0  0  0
    5.5448   -0.4057   -0.7383 C   0  0  0  0  0  0  0  0  0  0  0  0
    5.9213    1.7659    1.1022 C   0  0  0  0  0  0  0  0  0  0  0  0
    6.7939   -0.0223   -0.2297 C   0  0  0  0  0  0  0  0  0  0  0  0
    6.9951    1.0203    0.6414 C   0  0  0  0  0  0  0  0  0  0  0  0
   -1.2213    0.0512    3.4220 C   0  0  0  0  0  0  0  0  0  0  0  0
    7.7652   -0.7710   -0.8054 O   0  0  0  0  0  0  0  0  0  0  0  0
    9.0307   -0.4569   -0.2898 C   0  0  0  0  0  0  0  0  0  0  0  0
    9.3263   -0.8417    1.1589 C   0  0  0  0  0  0  0  0  0  0  0  0
   10.1698   -0.3576    1.8875 O   0  0  0  0  0  0  0  0  0  0  0  0
    8.5144   -1.8429    1.6003 N   0  0  0  0  0  0  0  0  0  0  0  0
    8.6656   -2.3574    2.8529 C   0  0  0  0  0  0  0  0  0  0  0  0
    7.8923   -3.2704    3.3264 N   0  0  0  0  0  0  0  0  0  0  0  0
    9.8944   -1.7733    3.9582 S   0  0  0  0  0  0  0  0  0  0  0  0
    8.2773   -3.6406    4.5463 N   0  0  0  0  0  0  0  0  0  0  0  0
    9.2513   -3.0392    5.0202 C   0  0  0  0  0  0  0  0  0  0  0  0
    9.8361   -3.3210    6.3555 C   0  0  0  0  0  0  0  0  0  0  0  0
    9.0451   -4.4169    7.0679 C   0  0  0  0  0  0  0  0  0  0  0  0
    9.6520   -4.6299    8.4538 C   0  0  0  0  0  0  0  0  0  0  0  0
    8.8606   -5.6813    9.2301 C   0  0  0  0  0  0  0  0  0  0  0  0
  2  1  2  0
  3  2  1  0
  4  1  1  0
  5  4  2  0
  6  5  1  0
  6  3  2  0
  7  2  1  0
  8  5  1  0
  9  8  1  0
 10  9  2  0
 11  9  1  0
 12 10  1  0
 13 11  2  0
 14 13  1  0
 14 12  2  0
 15  7  1  0
 16 13  1  0
 17 16  1  0
 18 17  1  0
 19 18  2  0
 20 18  1  0
 21 20  1  0
 22 21  2  0
 23 21  1  0
 24 22  1  0
 25 24  2  0
 25 23  1  0
 26 25  1  0
 27 26  1  0
 28 27  1  0
 29 28  1  0
M  END
>  <SMILES>  (13) 
CCCCc1nnc(NC(=O)COc2cccc(Oc3cnc(OC)cn3)c2)s1

>  <scaffold>  (13) 
pyrazine

$$$$

     RDKit          3D

 31 33  0  0  0  0  0  0  0  0999 V2000
   -0.0000   -0.0000   -0.0000 C   0  0  0  0  0  0  0  0  0  0  0  0
    0.0000    0.0000    1.3862 C   0  0  0  0  0  0  0  0  0  0  0  0
    1.1394   -0.0000    2.0607 N   0  0  0  0  0  0  0  0  0  0  0  0
    1.1130    0.0000   -0.7172 N   0  0  0  0  0  0  0  0  0  0  0  0
    2.2324    0.0000    0.0041 C   0  0  0  0  0  0  0  0  0  0  0  0
    2.2324   -0.0000    1.4062 C   0  0  0  0  0  0  0  0  0  0  0  0
    3.7211   -0.0625   -0.8808 S   0  0  0  0  0  0  0  0  0  0  0  0
    3.2355   -0.0432   -2.6504 C   0  0  0  0  0  0  0  0  0  0  0  0
    2.7668    1.2782   -3.0558 C   0  0  0  0  0  0  0  0  0  0  0  0
    3.6137    2.3726   -2.9768 C   0  0  0  0  0  0  0  0  0  0  0  0
    1.4789    1.4957   -3.5433 C   0  0  0  0  0  0  0  0  0  0  0  0
    3.1982    3.6541   -3.3034 C   0  0  0  0  0  0  0  0  0  0  0  0
    1.0650    2.7697   -3.8676 C   0  0  0  0  0  0  0  0  0  0  0  0
    1.8913    3.8869   -3.7294 C   0  0  0  0  0  0  0  0  0  0  0  0
    1.3530    5.1029   -4.0260 O   0  0  0  0  0  0  0  0  0  0  0  0
    2.1926    6.2176   -3.8892 C   0  0  0  0  0  0  0  0  0  0  0  0
    2.6265    6.5411   -2.4883 C   0  0  0  0  0  0  0  0  0  0  0  0
    3.7355    7.2878   -2.1534 C   0  0  0  0  0  0  0  0  0  0  0  0
    1.9154    6.0588   -1.3803 C   0  0  0  0  0  0  0  0  0  0  0  0
    4.1284    7.6368   -0.9380 N   0  0  0  0  0  0  0  0  0  0  0  0
    2.3204    6.4204   -0.1221 C   0  0  0  0  0  0  0  0  0  0  0  0
    3.3729    7.2207    0.0366 C   0  0  0  0  0  0  0  0  0  0  0  0
    3.9594    7.6472    1.5780 Cl  0  0  0  0  0  0  0  0  0  0  0  0
    1.7044    5.9482    0.9600 O   0  0  0  0  0  0  0  0  0  0  0  0
    0.5947    5.0444    0.8608 C   0  0  0  0  0  0  0  0  0  0  0  0
   -0.6832    5.7757    0.4525 C   0  0  0  0  0  0  0  0  0  0  0  0
   -1.9012    4.8703    0.3861 C   0  0  0  0  0  0  0  0  0  0  0  0
   -3.1600    5.6585    0.0275 C   0  0  0  0  0  0  0  0  0  0  0  0
   -4.4246    4.8015    0.0014 C   0  0  0  0  0  0  0  0  0  0  0  0
   -5.6601    5.6454   -0.3079 C   0  0  0  0  0  0  0  0  0  0  0  0
   -6.9458    4.8251   -0.3994 C   0  0  0  0  0  0  0  0  0  0  0  0
  2  1  2  0
  3  2  1  0
  4  1  1  0
  5  4  2  0
  6  5  1  0
  6  3  2  0
  7  5  1  0
  8  7  1  0
  9  8  1  0
 10  9  2  0
 11  9  1  0
 12 10  1  0
 13 11  2  0
 14 13  1  0
 14 12  2  0
 15 14  1  0
 16 15  1  0
 17 16  1  0
 18 17  2  0
 19 17  1  0
 20 18  1  0
 21 19  2  0
 22 21  1  0
 22 20  2  0
 23 22  1  0
 24 21  1  0
 25 24  1  0
 26 25  1  0
 27 26  1  0
 28 27  1  0
 29 28  1  0
 30 29  1  0
 31 30  1  0
M  END
>  <SMILES>  (14) 
CCCCCCCOc1cc(COc2ccc(CSc3cnccn3)cc2)cnc1Cl

>  <scaffold>  (14) 
pyrazine

$$$$

     RDKit          3D

 22 23  0  0  0  0  0  0  0  0999 V2000
    0.0000    0.0000    0.0000 C   0  0  0  0  0  0  0  0  0  0  0  0
   -0.0000   -0.0000    1.3941 C   0  0  0  0  0  0  0  0  0  0  0  0
    1.1281    0.0000    2.0873 N   0  0  0  0  0  0  0  0  0  0  0  0
    1.1130    0.0000   -0.7172 N   0  0  0  0  0  0  0  0  0  0  0  0
    2.2324    0.0000    0.0041 C   0  0  0  0  0  0  0  0  0  0  0  0
    2.2324    0.0000    1.3982 C   0  0  0  0  0  0  0  0  0  0  0  0
   -1.4990   -0.0736    2.2606 S   0  0  0  0  0  0  0  0  0  0  0  0
   -0.8732    0.0282    3.9494 C   0  0  0  0  0  0  0  0  0  0  0  0
   -0.2468    1.1757    4.4334 C   0  0  0  0  0  0  0  0  0  0  0  0
   -1.1428   -1.0502    4.7775 C   0  0  0  0  0  0  0  0  0  0  0  0
    0.1711    1.2245    5.7459 C   0  0  0  0  0  0  0  0  0  0  0  0
   -0.7223   -0.9949    6.1056 C   0  0  0  0  0  0  0  0  0  0  0  0
   -0.0831    0.1549    6.6030 C   0  0  0  0  0  0  0  0  0  0  0  0
    0.4144    0.2999    8.2671 S   0  0  0  0  0  0  0  0  0  0  0  0
   -0.3358   -1.2233    8.9063 C   0  0  0  0  0  0  0  0  0  0  0  0
   -1.8126   -1.3039    8.5593 C   0  0  0  0  0  0  0  0  0  0  0  0
   -2.3440   -2.3664    8.4361 O   0  0  0  0  0  0  0  0  0  0  0  0
   -2.3999   -0.1185    8.5022 O   0  0  0  0  0  0  0  0  0  0  0  0
   -3.8007   -0.0635    8.2390 C   0  0  0  0  0  0  0  0  0  0  0  0
   -4.0929    0.0028    6.7497 C   0  0  0  0  0  0  0  0  0  0  0  0
   -5.5999    0.1149    6.5243 C   0  0  0  0  0  0  0  0  0  0  0  0
   -5.9434    0.2400    5.0408 C   0  0  0  0  0  0  0  0  0  0  0  0
  2  1  2  0
  3  2  1  0
  4  1  1  0
  5  4  2  0
  6  5  1  0
  6  3  2  0
  7  2  1  0
  8  7  1  0
  9  8  2  0
 10  8  1  0
 11  9  1  0
 12 10  2  0
 13 12  1  0
 13 11  2  0
 14 13  1  0
 15 14  1  0
 16 15  1  0
 17 16  2  0
 18 16  1  0
 19 18  1  0
 20 19  1  0
 21 20  1  0
 22 21  1  0
M  END
>  <SMILES>  (15) 
CCCCOC(=O)CSc1ccc(Sc2cnccn2)cc1

>  <scaffold>  (15) 
pyrazine

$$$$

     RDKit          3D

 29 32  0  0  0  0  0  0  0  0999 V2000
   -0.0000   -0.0000    0.0000 C   0  0  0  0  0  0  0  0  0  0  0  0
   -0.0000   -0.0000    1.3862 C   0  0  0  0  0  0  0  0  0  0  0  0
    1.1281   -0.0000    2.0794 N   0  0  0  0  0  0  0  0  0  0  0  0
    1.1067   -0.0000   -0.7131 N   0  0  0  0  0  0  0  0  0  0  0  0
    2.2261   -0.0000    0.0082 C   0  0  0  0  0  0  0  0  0  0  0  0
    2.2261    0.0000    1.4103 C   0  0  0  0  0  0  0  0  0  0  0  0
    3.3570    0.0475   -0.6641 O   0  0  0  0  0  0  0  0  0  0  0  0
    3.4900   -0.0242   -2.0500 C   0  0  0  0  0  0  0  0  0  0  0  0
    4.2326    0.9121   -2.7678 C   0  0  0  0  0  0  0  0  0  0  0  0
    2.8457   -1.0428   -2.7507 C   0  0  0  0  0  0  0  0  0  0  0  0
    4.4316    0.8545   -4.1224 C   0  0  0  0  0  0  0  0  0  0  0  0
    3.0461   -1.1022   -4.1130 C   0  0  0  0  0  0  0  0  0  0  0  0
    3.8576   -0.2093   -4.8487 C   0  0  0  0  0  0  0  0  0  0  0  0
    4.1255   -0.2526   -6.1999 N   0  0  0  0  0  0  0  0  0  0  0  0
    3.5453   -1.1085   -7.1230 C   0  0  0  0  0  0  0  0  0  0  0  0
    2.2084   -1.5035   -7.1385 C   0  0  0  0  0  0  0  0  0  0  0  0
    4.3718   -1.4751   -8.1842 C   0  0  0  0  0  0  0  0  0  0  0  0
    1.6616   -2.3239   -8.1129 C   0  0  0  0  0  0  0  0  0  0  0  0
    3.8278   -2.2768   -9.1422 C   0  0  0  0  0  0  0  0  0  0  0  0
    2.4776   -2.7902   -9.1426 C   0  0  0  0  0  0  0  0  0  0  0  0
    1.9877   -3.6525  -10.1110 N   0  0  0  0  0  0  0  0  0  0  0  0
    0.7629   -4.2003  -10.2986 C   0  0  0  0  0  0  0  0  0  0  0  0
   -0.2142   -4.0251   -9.5978 O   0  0  0  0  0  0  0  0  0  0  0  0
    0.7524   -5.1132  -11.4587 C   0  0  0  0  0  0  0  0  0  0  0  0
    1.8044   -5.3027  -12.2273 N   0  0  0  0  0  0  0  0  0  0  0  0
   -0.3447   -5.8856  -11.8926 C   0  0  0  0  0  0  0  0  0  0  0  0
    1.4270   -6.2234  -13.1238 O   0  0  0  0  0  0  0  0  0  0  0  0
    0.1859   -6.5821  -12.9570 C   0  0  0  0  0  0  0  0  0  0  0  0
   -0.3771   -7.5981  -13.8268 C   0  0  0  0  0  0  0  0  0  0  0  0
  2  1  2  0
  3  2  1  0
  4  1  1  0
  5  4  2  0
  6  5  1  0
  6  3  2  0
  7  5  1  0
  8  7  1  0
  9  8  2  0
 10  8  1  0
 11  9  1  0
 12 10  2  0
 13 12  1  0
 13 11  2  0
 14 13  1  0
 15 14  1  0
 16 15  2  0
 17 15  1  0
 18 16  1  0
 19 17  2  0
 20 19  1  0
 20 18  2  0
 21 20  1  0
 22 21  1  0
 23 22  2  0
 24 22  1  0
 25 24  2  0
 26 24  1  0
 27 25  1  0
 28 27  1  0
 28 26  2  0
 29 28  1  0
M  END
>  <SMILES>  (16) 
Cc1cc(C(=O)Nc2ccc(Nc3ccc(Oc4cnccn4)cc3)cc2)no1

>  <scaffold>  (16) 
pyrazine

$$$$

     RDKit          3D

 28 29  0  0  0  0  0  0  0  0999 V2000
    0.0000    0.0000   -0.0000 C   0  0  0  0  0  0  0  0  0  0  0  0
    0.0000   -0.0000    1.3941 C   0  0  0  0  0  0  0  0  0  0  0  0
    1.1281   -0.0000    2.0873 N   0  0  0  0  0  0  0  0  0  0  0  0
    1.1067    0.0000   -0.7131 N   0  0  0  0  0  0  0  0  0  0  0  0
    2.2261   -0.0000    0.0082 C   0  0  0  0  0  0  0  0  0  0  0  0
    2.2261   -0.0000    1.4103 C   0  0  0  0  0  0  0  0  0  0  0  0
   -1.0991   -0.0540    2.1844 O   0  0  0  0  0  0  0  0  0  0  0  0
    3.3899   -0.0489   -0.6836 O   0  0  0  0  0  0  0  0  0  0  0  0
    3.6501    0.4560   -1.9307 C   0  0  0  0  0  0  0  0  0  0  0  0
    2.7678    1.0606   -2.4775 O   0  0  0  0  0  0  0  0  0  0  0  0
   -2.3284   -0.4269    1.7302 C   0  0  0  0  0  0  0  0  0  0  0  0
   -2.4826   -0.8929    0.6110 O   0  0  0  0  0  0  0  0  0  0  0  0
    4.8761    0.2306   -2.4205 N   0  0  0  0  0  0  0  0  0  0  0  0
   -3.2888   -0.2689    2.6279 N   0  0  0  0  0  0  0  0  0  0  0  0
   -4.6672   -0.6639    2.3561 C   0  0  0  0  0  0  0  0  0  0  0  0
   -2.9880    0.2008    3.9676 C   0  0  0  0  0  0  0  0  0  0  0  0
    5.3653    0.7285   -3.6927 C   0  0  0  0  0  0  0  0  0  0  0  0
   -5.4569    0.4611    1.6889 C   0  0  0  0  0  0  0  0  0  0  0  0
   -2.6486   -0.9534    4.9094 C   0  0  0  0  0  0  0  0  0  0  0  0
    5.0175   -0.2006   -4.8202 C   0  0  0  0  0  0  0  0  0  0  0  0
    3.8082   -0.2745   -5.4437 C   0  0  0  0  0  0  0  0  0  0  0  0
    6.1467   -1.3702   -5.4203 S   0  0  0  0  0  0  0  0  0  0  0  0
    3.8019   -1.2956   -6.4280 C   0  0  0  0  0  0  0  0  0  0  0  0
    4.9988   -1.9975   -6.5570 C   0  0  0  0  0  0  0  0  0  0  0  0
    5.2460   -3.1468   -7.4639 C   0  0  0  0  0  0  0  0  0  0  0  0
    5.2815   -4.4117   -6.6076 C   0  0  0  0  0  0  0  0  0  0  0  0
    4.3165   -5.0485   -6.3080 O   0  0  0  0  0  0  0  0  0  0  0  0
    6.5188   -4.6351   -6.1688 O   0  0  0  0  0  0  0  0  0  0  0  0
  2  1  2  0
  3  2  1  0
  4  1  1  0
  5  4  2  0
  6  5  1  0
  6  3  2  0
  7  2  1  0
  8  5  1  0
  9  8  1  0
 10  9  2  0
 11  7  1  0
 12 11  2  0
 13  9  1  0
 14 11  1  0
 15 14  1  0
 16 14  1  0
 17 13  1  0
 18 15  1  0
 19 16  1  0
 20 17  1  0
 21 20  2  0
 22 20  1  0
 23 21  1  0
 24 23  2  0
 24 22  1  0
 25 24  1  0
 26 25  1  0
 27 26  2  0
 28 26  1  0
M  END
>  <SMILES>  (17) 
CCN(CC)C(=O)Oc1cnc(OC(=O)NCc2ccc(CC(=O)O)s2)cn1

>  <scaffold>  (17) 
pyrazine

$$$$

     RDKit          3D

 30 31  0  0  0  0  0  0  0  0999 V2000
    0.0000   -0.0000   -0.0000 C   0  0  0  0  0  0  0  0  0  0  0  0
   -0.0000   -0.0000    1.3941 C   0  0  0  0  0  0  0  0  0  0  0  0
    1.1281    0.0000    2.0873 N   0  0  0  0  0  0  0  0  0  0  0  0
    1.1130   -0.0000   -0.7172 N   0  0  0  0  0  0  0  0  0  0  0  0
    2.2324    0.0000    0.0041 C   0  0  0  0  0  0  0  0  0  0  0  0
    2.2324   -0.0000    1.3982 C   0  0  0  0  0  0  0  0  0  0  0  0
   -1.1836    0.0000   -0.6104 O   0  0  0  0  0  0  0  0  0  0  0  0
   -1.2347   -0.0512   -2.0268 C   0  0  0  0  0  0  0  0  0  0  0  0
    3.4232    0.0500   -0.7037 N   0  0  0  0  0  0  0  0  0  0  0  0
    3.6744    0.1003   -2.0261 C   0  0  0  0  0  0  0  0  0  0  0  0
    2.5629    0.1167   -3.2272 S   0  0  0  0  0  0  0  0  0  0  0  0
    4.9972    0.0877   -2.4129 N   0  0  0  0  0  0  0  0  0  0  0  0
    6.1492    0.0313   -1.6728 C   0  0  0  0  0  0  0  0  0  0  0  0
    6.1345   -0.0190   -0.4726 O   0  0  0  0  0  0  0  0  0  0  0  0
    7.2205   -0.0110   -2.4754 O   0  0  0  0  0  0  0  0  0  0  0  0
    8.5165   -0.1292   -1.8914 C   0  0  0  0  0  0  0  0  0  0  0  0
    8.7020   -1.5309   -1.3599 C   0  0  0  0  0  0  0  0  0  0  0  0
    9.4531   -1.6769   -0.2041 C   0  0  0  0  0  0  0  0  0  0  0  0
    8.1845   -2.6518   -1.9903 C   0  0  0  0  0  0  0  0  0  0  0  0
    9.6350   -2.9696    0.2128 C   0  0  0  0  0  0  0  0  0  0  0  0
    8.3714   -3.9665   -1.5658 C   0  0  0  0  0  0  0  0  0  0  0  0
    9.1553   -4.1322   -0.3887 C   0  0  0  0  0  0  0  0  0  0  0  0
    9.3587   -5.3587    0.1496 O   0  0  0  0  0  0  0  0  0  0  0  0
    9.0128   -6.5630   -0.4797 C   0  0  0  0  0  0  0  0  0  0  0  0
    9.7909   -6.7945   -1.7844 C   0  0  0  0  0  0  0  0  0  0  0  0
   10.7140   -6.1532   -2.1883 O   0  0  0  0  0  0  0  0  0  0  0  0
    9.2968   -7.8302   -2.4297 O   0  0  0  0  0  0  0  0  0  0  0  0
    9.9303   -8.2460   -3.6575 C   0  0  0  0  0  0  0  0  0  0  0  0
    9.5596   -7.3389   -4.8297 C   0  0  0  0  0  0  0  0  0  0  0  0
   10.1691   -7.7741   -6.1816 C   0  0  0  0  0  0  0  0  0  0  0  0
  2  1  2  0
  3  2  1  0
  4  1  1  0
  5  4  2  0
  6  5  1  0
  6  3  2  0
  7  1  1  0
  8  7  1  0
  9  5  1  0
 10  9  1  0
 11 10  2  0
 12 10  1  0
 13 12  1  0
 14 13  2  0
 15 13  1  0
 16 15  1  0
 17 16  1  0
 18 17  2  0
 19 17  1  0
 20 18  1  0
 21 19  2  0
 22 21  1  0
 22 20  2  0
 23 22  1  0
 24 23  1  0
 25 24  1  0
 26 25  2  0
 27 25  1  0
 28 27  1  0
 29 28  1  0
 30 29  1  0
M  END
>  <SMILES>  (18) 
CCCOC(=O)COc1ccc(COC(=O)NC(=S)Nc2cncc(OC)n2)cc1

>  <scaffold>  (18) 
pyrazine

$$$$

     RDKit          3D

 21 22  0  0  0  0  0  0  0  0999 V2000
   -0.0000   -0.0000    0.0000 C   0  0  0  0  0  0  0  0  0  0  0  0
    0.0000    0.0000    1.4021 C   0  0  0  0  0  0  0  0  0  0  0  0
    1.1459   -0.0000    2.0806 N   0  0  0  0  0  0  0  0  0  0  0  0
    1.1067    0.0000   -0.7131 N   0  0  0  0  0  0  0  0  0  0  0  0
    2.2325   -0.0000    0.0124 C   0  0  0  0  0  0  0  0  0  0  0  0
    2.2325    0.0000    1.4065 C   0  0  0  0  0  0  0  0  0  0  0  0
   -1.5076    0.0741    2.2736 S   0  0  0  0  0  0  0  0  0  0  0  0
   -0.8676    0.1145    3.9818 C   0  0  0  0  0  0  0  0  0  0  0  0
   -0.3785   -1.2085    4.4454 C   0  0  0  0  0  0  0  0  0  0  0  0
   -1.2609   -2.2868    4.4914 C   0  0  0  0  0  0  0  0  0  0  0  0
    0.9609   -1.3948    4.7500 C   0  0  0  0  0  0  0  0  0  0  0  0
   -0.8432   -3.5371    4.8655 C   0  0  0  0  0  0  0  0  0  0  0  0
    1.3724   -2.6385    5.1249 C   0  0  0  0  0  0  0  0  0  0  0  0
    0.4914   -3.7834    5.2179 C   0  0  0  0  0  0  0  0  0  0  0  0
    3.2782   -0.0519   -0.8106 O   0  0  0  0  0  0  0  0  0  0  0  0
    0.9543   -4.9974    5.5432 N   0  0  0  0  0  0  0  0  0  0  0  0
    0.1603   -6.1919    5.5747 C   0  0  0  0  0  0  0  0  0  0  0  0
    1.1562   -7.3236    5.8235 C   0  0  0  0  0  0  0  0  0  0  0  0
    1.9215   -7.2622    7.1444 C   0  0  0  0  0  0  0  0  0  0  0  0
    1.0067   -7.5479    8.3343 C   0  0  0  0  0  0  0  0  0  0  0  0
    1.8059   -7.4209    9.6302 C   0  0  0  0  0  0  0  0  0  0  0  0
  2  1  2  0
  3  2  1  0
  4  1  1  0
  5  4  2  0
  6  5  1  0
  6  3  2  0
  7  2  1  0
  8  7  1  0
  9  8  1  0
 10  9  2  0
 11  9  1  0
 12 10  1  0
 13 11  2  0
 14 13  1  0
 14 12  2  0
 15  5  1  0
 16 14  1  0
 17 16  1  0
 18 17  1  0
 19 18  1  0
 20 19  1  0
 21 20  1  0
M  END
>  <SMILES>  (19) 
CCCCCNc1ccc(CSc2cnc(O)cn2)cc1

>  <scaffold>  (19) 
pyrazine

$$$$

     RDKit          3D

 30 32  0  0  0  0  0  0  0  0999 V2000
    0.0000   -0.0000    0.0000 C   0  0  0  0  0  0  0  0  0  0  0  0
    0.0000   -0.0000    1.3941 C   0  0  0  0  0  0  0  0  0  0  0  0
    1.1525   -0.0000    2.0765 N   0  0  0  0  0  0  0  0  0  0  0  0
    1.1130   -0.0000   -0.7172 N   0  0  0  0  0  0  0  0  0  0  0  0
    2.2324    0.0000    0.0041 C   0  0  0  0  0  0  0  0  0  0  0  0
    2.2324    0.0000    1.4062 C   0  0  0  0  0  0  0  0  0  0  0  0
   -1.4820   -0.0000    2.3491 S   0  0  0  0  0  0  0  0  0  0  0  0
    3.3497    0.0492   -0.7743 N   0  0  0  0  0  0  0  0  0  0  0  0
   -2.7944   -0.0645    1.1737 C   0  0  0  0  0  0  0  0  0  0  0  0
   -3.6328    0.9470    1.0880 N   0  0  0  0  0  0  0  0  0  0  0  0
   -2.9138   -1.1720    0.3488 C   0  0  0  0  0  0  0  0  0  0  0  0
   -4.6487    0.9214    0.2628 C   0  0  0  0  0  0  0  0  0  0  0  0
   -3.9774   -1.1997   -0.5148 C   0  0  0  0  0  0  0  0  0  0  0  0
   -4.8871   -0.1778   -0.5610 C   0  0  0  0  0  0  0  0  0  0  0  0
   -5.9193   -0.2299   -1.4847 N   0  0  0  0  0  0  0  0  0  0  0  0
   -7.0978    0.4487   -1.5687 C   0  0  0  0  0  0  0  0  0  0  0  0
   -7.6984    1.4618   -0.4459 S   0  0  0  0  0  0  0  0  0  0  0  0
   -7.7766    0.1109   -2.6727 O   0  0  0  0  0  0  0  0  0  0  0  0
   -9.0390    0.7262   -3.0382 C   0  0  0  0  0  0  0  0  0  0  0  0
   -9.4821    0.0109   -4.3135 C   0  0  0  0  0  0  0  0  0  0  0  0
  -10.0762    0.4890   -1.9417 C   0  0  0  0  0  0  0  0  0  0  0  0
   -8.8552    2.2313   -3.2257 C   0  0  0  0  0  0  0  0  0  0  0  0
   -7.6887    2.7839   -3.7731 C   0  0  0  0  0  0  0  0  0  0  0  0
   -9.9252    3.0735   -2.9266 C   0  0  0  0  0  0  0  0  0  0  0  0
   -7.5876    4.1524   -3.9695 C   0  0  0  0  0  0  0  0  0  0  0  0
   -9.8218    4.4411   -3.1281 C   0  0  0  0  0  0  0  0  0  0  0  0
   -8.6754    4.9727   -3.6741 C   0  0  0  0  0  0  0  0  0  0  0  0
   -8.4762    6.2752   -3.9542 O   0  0  0  0  0  0  0  0  0  0  0  0
   -9.5005    7.2305   -3.6439 C   0  0  0  0  0  0  0  0  0  0  0  0
   -9.5394    7.5573   -2.1519 C   0  0  0  0  0  0  0  0  0  0  0  0
  2  1  2  0
  3  2  1  0
  4  1  1  0
  5  4  2  0
  6  5  1  0
  6  3  2  0
  7  2  1  0
  8  5  1  0
  9  7  1  0
 10  9  2  0
 11  9  1  0
 12 10  1  0
 13 11  2  0
 14 13  1  0
 14 12  2  0
 15 14  1  0
 16 15  1  0
 17 16  2  0
 18 16  1  0
 19 18  1  0
 20 19  1  0
 21 19  1  0
 22 19  1  0
 23 22  2  0
 24 22  1  0
 25 23  1  0
 26 24  2  0
 27 26  1  0
 27 25  2  0
 28 27  1  0
 29 28  1  0
 30 29  1  0
M  END
>  <SMILES>  (20) 
CCOc1ccc(C(C)(C)OC(=S)Nc2ccc(Sc3cnc(N)cn3)nc2)cc1

>  <scaffold>  (20) 
pyrazine

$$$$

     RDKit          3D

 25 27  0  0  0  0  0  0  0  0999 V2000
    0.0000   -0.0000    0.0000 C   0  0  0  0  0  0  0  0  0  0  0  0
    0.0000    0.0000    1.3704 C   0  0  0  0  0  0  0  0  0  0  0  0
    1.1411   -0.0000    2.0716 N   0  0  0  0  0  0  0  0  0  0  0  0
    1.1258   -0.0000   -0.7255 N   0  0  0  0  0  0  0  0  0  0  0  0
    2.2325   -0.0000   -0.0124 C   0  0  0  0  0  0  0  0  0  0  0  0
    2.2325    0.0000    1.4141 C   0  0  0  0  0  0  0  0  0  0  0  0
    3.4208   -0.0522    2.0297 O   0  0  0  0  0  0  0  0  0  0  0  0
    3.3765    0.0480   -0.6924 O   0  0  0  0  0  0  0  0  0  0  0  0
    3.4736   -0.0039    3.4300 C   0  0  0  0  0  0  0  0  0  0  0  0
    2.7925    0.9296    4.1956 C   0  0  0  0  0  0  0  0  0  0  0  0
    4.3594   -0.9117    4.0086 C   0  0  0  0  0  0  0  0  0  0  0  0
    2.9154    0.9689    5.5837 C   0  0  0  0  0  0  0  0  0  0  0  0
    4.4821   -0.8666    5.3886 C   0  0  0  0  0  0  0  0  0  0  0  0
    3.7895    0.0803    6.1901 C   0  0  0  0  0  0  0  0  0  0  0  0
    3.9088    0.0486    7.5787 N   0  0  0  0  0  0  0  0  0  0  0  0
    3.3073    0.7569    8.5752 C   0  0  0  0  0  0  0  0  0  0  0  0
    2.4816    1.6173    8.3080 O   0  0  0  0  0  0  0  0  0  0  0  0
    3.6305    0.4231    9.9412 C   0  0  0  0  0  0  0  0  0  0  0  0
    3.1344    0.9340   11.1029 C   0  0  0  0  0  0  0  0  0  0  0  0
    4.7672   -0.8616   10.2496 S   0  0  0  0  0  0  0  0  0  0  0  0
    3.5861    0.3880   12.3128 C   0  0  0  0  0  0  0  0  0  0  0  0
    4.4672   -0.5796   11.9228 C   0  0  0  0  0  0  0  0  0  0  0  0
    5.1337   -1.4455   12.9280 C   0  0  0  0  0  0  0  0  0  0  0  0
    4.5679   -2.8635   12.8689 C   0  0  0  0  0  0  0  0  0  0  0  0
    3.7882   -3.3683   13.6089 O   0  0  0  0  0  0  0  0  0  0  0  0
  2  1  2  0
  3  2  1  0
  4  1  1  0
  5  4  2  0
  6  5  1  0
  6  3  2  0
  7  6  1  0
  8  5  1  0
  9  7  1  0
 10  9  2  0
 11  9  1  0
 12 10  1  0
 13 11  2  0
 14 13  1  0
 14 12  2  0
 15 14  1  0
 16 15  1  0
 17 16  2  0
 18 16  1  0
 19 18  2  0
 20 18  1  0
 21 19  1  0
 22 20  1  0
 22 21  2  0
 23 22  1  0
 24 23  1  0
 25 24  2  0
M  END
>  <SMILES>  (21) 
O=CCc1ccc(C(=O)Nc2ccc(Oc3nccnc3O)cc2)s1

>  <scaffold>  (21) 
pyrazine

$$$$

     RDKit          3D

 26 28  0  0  0  0  0  0  0  0999 V2000
   -0.0000   -0.0000    0.0000 C   0  0  0  0  0  0  0  0  0  0  0  0
    0.0000   -0.0000    1.3941 C   0  0  0  0  0  0  0  0  0  0  0  0
    1.1281   -0.0000    2.0873 N   0  0  0  0  0  0  0  0  0  0  0  0
    1.1130    0.0000   -0.7172 N   0  0  0  0  0  0  0  0  0  0  0  0
    2.2324    0.0000    0.0041 C   0  0  0  0  0  0  0  0  0  0  0  0
    2.2324    0.0000    1.3982 C   0  0  0  0  0  0  0  0  0  0  0  0
   -1.1904    0.0000    2.0080 O   0  0  0  0  0  0  0  0  0  0  0  0
    3.5152    0.0539   -0.7584 C   0  0  0  0  0  0  0  0  0  0  0  0
   -1.1401   -0.0503    3.4003 C   0  0  0  0  0  0  0  0  0  0  0  0
   -1.8281    0.9411    4.0823 C   0  0  0  0  0  0  0  0  0  0  0  0
   -0.5364   -1.0928    4.0698 C   0  0  0  0  0  0  0  0  0  0  0  0
   -1.8476    0.9038    5.4520 C   0  0  0  0  0  0  0  0  0  0  0  0
   -0.5542   -1.1233    5.4241 C   0  0  0  0  0  0  0  0  0  0  0  0
   -1.2433   -0.1363    6.1568 C   0  0  0  0  0  0  0  0  0  0  0  0
   -1.2798   -0.2419    7.5305 N   0  0  0  0  0  0  0  0  0  0  0  0
   -1.5074    0.8722    8.4185 C   0  0  0  0  0  0  0  0  0  0  0  0
   -0.3109    1.8075    8.4587 C   0  0  0  0  0  0  0  0  0  0  0  0
   -0.3931    3.1387    8.0812 C   0  0  0  0  0  0  0  0  0  0  0  0
    0.9205    1.3405    8.8911 C   0  0  0  0  0  0  0  0  0  0  0  0
    0.7307    3.9364    8.0878 C   0  0  0  0  0  0  0  0  0  0  0  0
    2.0445    2.1381    8.8980 C   0  0  0  0  0  0  0  0  0  0  0  0
    1.9834    3.4559    8.4667 C   0  0  0  0  0  0  0  0  0  0  0  0
    3.2371    1.6242    9.2838 F   0  0  0  0  0  0  0  0  0  0  0  0
    3.1236    4.2270    8.5363 N   0  0  0  0  0  0  0  0  0  0  0  0
    3.2835    5.4697    7.8043 C   0  0  0  0  0  0  0  0  0  0  0  0
    4.3501    6.3354    8.4730 C   0  0  0  0  0  0  0  0  0  0  0  0
  2  1  2  0
  3  2  1  0
  4  1  1  0
  5  4  2  0
  6  5  1  0
  6  3  2  0
  7  2  1  0
  8  5  1  0
  9  7  1  0
 10  9  2  0
 11  9  1  0
 12 10  1  0
 13 11  2  0
 14 13  1  0
 14 12  2  0
 15 14  1  0
 16 15  1  0
 17 16  1  0
 18 17  2  0
 19 17  1  0
 20 18  1  0
 21 19  2  0
 22 21  1  0
 22 20  2  0
 23 21  1  0
 24 22  1  0
 25 24  1  0
 26 25  1  0
M  END
>  <SMILES>  (22) 
CCNc1ccc(CNc2ccc(Oc3cnc(C)cn3)cc2)cc1F

>  <scaffold>  (22) 
pyrazine

$$$$

     RDKit          3D

 31 33  0  0  0  0  0  0  0  0999 V2000
    0.0000    0.0000    0.0000 C   0  0  0  0  0  0  0  0  0  0  0  0
   -0.0000    0.0000    1.3941 C   0  0  0  0  0  0  0  0  0  0  0  0
    1.1102   -0.0000    2.1017 N   0  0  0  0  0  0  0  0  0  0  0  0
    1.1453   -0.0563   -0.6620 N   0  0  0  0  0  0  0  0  0  0  0  0
    2.2920   -0.0563   -0.0000 C   0  0  0  0  0  0  0  0  0  0  0  0
    2.2247    0.0059    1.4235 C   0  0  0  0  0  0  0  0  0  0  0  0
    3.3732    0.0571    2.1402 N   0  0  0  0  0  0  0  0  0  0  0  0
    3.4195   -0.0660   -0.7086 O   0  0  0  0  0  0  0  0  0  0  0  0
   -1.1652    0.0572   -0.6735 F   0  0  0  0  0  0  0  0  0  0  0  0
    3.3407    0.1544   -2.0910 C   0  0  0  0  0  0  0  0  0  0  0  0
    2.7705    1.3194   -2.5800 C   0  0  0  0  0  0  0  0  0  0  0  0
    3.9437   -0.7424   -2.9717 C   0  0  0  0  0  0  0  0  0  0  0  0
    2.7596    1.5153   -3.9522 C   0  0  0  0  0  0  0  0  0  0  0  0
    3.9346   -0.5386   -4.3508 C   0  0  0  0  0  0  0  0  0  0  0  0
    3.3497    0.6135   -4.8240 C   0  0  0  0  0  0  0  0  0  0  0  0
    1.8907    2.9172   -4.6569 S   0  0  0  0  0  6  0  0  0  0  0  0
    2.5486    3.3395   -5.8696 O   0  0  0  0  0  0  0  0  0  0  0  0
    1.7257    3.9397   -3.6643 O   0  0  0  0  0  0  0  0  0  0  0  0
    0.2993    2.2122   -5.0451 C   0  0  0  0  0  0  0  0  0  0  0  0
   -0.6136    2.0133   -4.0211 C   0  0  0  0  0  0  0  0  0  0  0  0
    0.0461    1.7832   -6.3049 C   0  0  0  0  0  0  0  0  0  0  0  0
   -1.8364    1.4264   -4.2653 C   0  0  0  0  0  0  0  0  0  0  0  0
   -1.1797    1.2009   -6.5456 C   0  0  0  0  0  0  0  0  0  0  0  0
   -2.1268    0.9754   -5.5607 C   0  0  0  0  0  0  0  0  0  0  0  0
   -3.3210    0.3778   -5.6642 O   0  0  0  0  0  0  0  0  0  0  0  0
   -3.6858   -0.2683   -6.8920 C   0  0  0  0  0  0  0  0  0  0  0  0
   -2.8928   -1.5207   -7.1821 C   0  0  0  0  0  0  0  0  0  0  0  0
   -3.1380   -2.5779   -6.1066 C   0  0  0  0  0  0  0  0  0  0  0  0
   -2.2743   -3.7996   -6.4160 C   0  0  0  0  0  0  0  0  0  0  0  0
   -2.5128   -4.7947   -5.2933 C   0  0  0  0  0  0  0  0  0  0  0  0
   -1.7102   -6.0616   -5.5849 C   0  0  0  0  0  0  0  0  0  0  0  0
  2  1  2  0
  3  2  1  0
  4  1  1  0
  5  4  2  0
  6  5  1  0
  6  3  2  0
  7  6  1  0
  8  5  1  0
  9  1  1  0
 10  8  1  0
 11 10  2  0
 12 10  1  0
 13 11  1  0
 14 12  2  0
 15 14  1  0
 15 13  2  0
 16 13  1  0
 17 16  2  0
 18 16  2  0
 19 16  1  0
 20 19  2  0
 21 19  1  0
 22 20  1  0
 23 21  2  0
 24 23  1  0
 24 22  2  0
 25 24  1  0
 26 25  1  0
 27 26  1  0
 28 27  1  0
 29 28  1  0
 30 29  1  0
 31 30  1  0
M  END
>  <SMILES>  (23) 
CCCCCCOc1ccc(S(=O)(=O)c2cccc(Oc3nc(F)cnc3N)c2)cc1

>  <scaffold>  (23) 
pyrazine

$$$$

     RDKit          3D

 25 27  0  0  0  0  0  0  0  0999 V2000
   -0.0000   -0.0000    0.0000 C   0  0  0  0  0  0  0  0  0  0  0  0
    0.0000   -0.0000    1.3782 C   0  0  0  0  0  0  0  0  0  0  0  0
    1.1459   -0.0000    2.0567 N   0  0  0  0  0  0  0  0  0  0  0  0
    1.1130   -0.0000   -0.7172 N   0  0  0  0  0  0  0  0  0  0  0  0
    2.2715   -0.0569   -0.0475 C   0  0  0  0  0  0  0  0  0  0  0  0
    2.2708   -0.1138    1.3696 C   0  0  0  0  0  0  0  0  0  0  0  0
    3.3837   -0.0058   -0.8195 N   0  0  0  0  0  0  0  0  0  0  0  0
    4.6352    0.0030   -0.3213 N   0  0  0  0  0  0  0  0  0  0  0  0
    5.6567    0.0981   -1.0855 C   0  0  0  0  0  0  0  0  0  0  0  0
    6.9423    0.0400   -0.4331 C   0  0  0  0  0  0  0  0  0  0  0  0
    7.1102   -0.1661    0.9193 C   0  0  0  0  0  0  0  0  0  0  0  0
    8.1487    0.1891   -1.1637 C   0  0  0  0  0  0  0  0  0  0  0  0
    8.2818   -0.2750    1.5592 N   0  0  0  0  0  0  0  0  0  0  0  0
    9.3404    0.0785   -0.5125 C   0  0  0  0  0  0  0  0  0  0  0  0
    9.4667   -0.2395    0.8255 C   0  0  0  0  0  0  0  0  0  0  0  0
   10.4995   -0.3842    1.4354 O   0  0  0  0  0  0  0  0  0  0  0  0
   10.6527    0.1752   -1.2541 C   0  0  0  0  0  0  0  0  0  0  0  0
    8.3994   -0.6245    2.9541 C   0  0  0  0  0  0  0  0  0  0  0  0
   10.5659   -0.1447   -2.6165 O   0  0  0  0  0  0  0  0  0  0  0  0
    7.9757   -2.0392    3.2270 C   0  0  0  0  0  0  0  0  0  0  0  0
    7.5959   -2.3584    4.5214 C   0  0  0  0  0  0  0  0  0  0  0  0
    8.0328   -3.0283    2.2576 C   0  0  0  0  0  0  0  0  0  0  0  0
    7.2486   -3.6480    4.8282 C   0  0  0  0  0  0  0  0  0  0  0  0
    7.6855   -4.3017    2.5633 C   0  0  0  0  0  0  0  0  0  0  0  0
    7.2557   -4.6864    3.8861 C   0  0  0  0  0  0  0  0  0  0  0  0
  2  1  2  0
  3  2  1  0
  4  1  1  0
  5  4  2  0
  6  5  1  0
  6  3  2  0
  7  5  1  0
  8  7  1  0
  9  8  2  0
 10  9  1  0
 11 10  2  0
 12 10  1  0
 13 11  1  0
 14 12  2  0
 15 14  1  0
 15 13  1  0
 16 15  2  0
 17 14  1  0
 18 13  1  0
 19 17  1  0
 20 18  1  0
 21 20  2  0
 22 20  1  0
 23 21  1  0
 24 22  2  0
 25 24  1  0
 25 23  2  0
M  END
>  <SMILES>  (24) 
O=c1c(CO)cc(C=NNc2cnccn2)cn1Cc1ccccc1

>  <scaffold>  (24) 
pyrazine

$$$$

     RDKit          3D

 22 23  0  0  0  0  0  0  0  0999 V2000
    0.0000    0.0000   -0.0000 C   0  0  0  0  0  0  0  0  0  0  0  0
   -0.0000   -0.0000    1.3782 C   0  0  0  0  0  0  0  0  0  0  0  0
    1.1459   -0.0000    2.0567 N   0  0  0  0  0  0  0  0  0  0  0  0
    1.1130   -0.0000   -0.7172 N   0  0  0  0  0  0  0  0  0  0  0  0
    2.2715   -0.0569   -0.0475 C   0  0  0  0  0  0  0  0  0  0  0  0
    2.2708   -0.1135    1.3615 C   0  0  0  0  0  0  0  0  0  0  0  0
    3.3837   -0.0058   -0.8195 N   0  0  0  0  0  0  0  0  0  0  0  0
    4.6209    0.0029   -0.3269 N   0  0  0  0  0  0  0  0  0  0  0  0
    5.6015    0.1034   -1.1540 C   0  0  0  0  0  0  0  0  0  0  0  0
    6.9574    0.1690   -0.6652 C   0  0  0  0  0  0  0  0  0  0  0  0
    7.9893    0.2274   -1.6008 C   0  0  0  0  0  0  0  0  0  0  0  0
    7.3263    0.1948    0.6790 C   0  0  0  0  0  0  0  0  0  0  0  0
    9.2971    0.3408   -1.1810 C   0  0  0  0  0  0  0  0  0  0  0  0
    8.6121    0.3056    1.0910 C   0  0  0  0  0  0  0  0  0  0  0  0
    9.6517    0.4018    0.1659 C   0  0  0  0  0  0  0  0  0  0  0  0
   10.8945    0.5662    0.6996 O   0  0  0  0  0  0  0  0  0  0  0  0
   11.9870    0.6307   -0.2025 C   0  0  0  0  0  0  0  0  0  0  0  0
   13.2304    0.7538    0.6615 C   0  0  0  0  0  0  0  0  0  0  0  0
   14.4504    0.6838   -0.2556 C   0  0  0  0  0  0  0  0  0  0  0  0
   14.6725    1.9439   -1.0906 C   0  0  0  0  0  0  0  0  0  0  0  0
   15.9331    1.8442   -1.9481 C   0  0  0  0  0  0  0  0  0  0  0  0
   16.2303    3.1024   -2.7622 C   0  0  0  0  0  0  0  0  0  0  0  0
  2  1  2  0
  3  2  1  0
  4  1  1  0
  5  4  2  0
  6  5  1  0
  6  3  2  0
  7  5  1  0
  8  7  1  0
  9  8  2  0
 10  9  1  0
 11 10  2  0
 12 10  1  0
 13 11  1  0
 14 12  2  0
 15 14  1  0
 15 13  2  0
 16 15  1  0
 17 16  1  0
 18 17  1  0
 19 18  1  0
 20 19  1  0
 21 20  1  0
 22 21  1  0
M  END
>  <SMILES>  (25) 
CCCCCCOc1ccc(C=NNc2cnccn2)cc1

>  <scaffold>  (25) 
pyrazine

$$$$

     RDKit          3D

 24 26  0  0  0  0  0  0  0  0999 V2000
   -0.0000   -0.0000    0.0000 C   0  0  0  0  0  0  0  0  0  0  0  0
    0.0000   -0.0000    1.3862 C   0  0  0  0  0  0  0  0  0  0  0  0
    1.1459    0.0000    2.0646 N   0  0  0  0  0  0  0  0  0  0  0  0
    1.1130    0.0000   -0.7172 N   0  0  0  0  0  0  0  0  0  0  0  0
    2.2389    0.0000    0.0083 C   0  0  0  0  0  0  0  0  0  0  0  0
    2.2389    0.0000    1.4104 C   0  0  0  0  0  0  0  0  0  0  0  0
   -1.0928    0.0537    2.1719 O   0  0  0  0  0  0  0  0  0  0  0  0
    3.3894    0.0483   -0.6757 O   0  0  0  0  0  0  0  0  0  0  0  0
    3.4533   -0.0798   -2.0544 C   0  0  0  0  0  0  0  0  0  0  0  0
    2.7601   -1.0878   -2.7230 C   0  0  0  0  0  0  0  0  0  0  0  0
    4.2190    0.7834   -2.8225 C   0  0  0  0  0  0  0  0  0  0  0  0
    2.8933   -1.2059   -4.0897 C   0  0  0  0  0  0  0  0  0  0  0  0
    4.3500    0.6667   -4.1659 C   0  0  0  0  0  0  0  0  0  0  0  0
    3.7559   -0.3676   -4.7944 C   0  0  0  0  0  0  0  0  0  0  0  0
   -2.3393   -0.2585    1.6521 C   0  0  0  0  0  0  0  0  0  0  0  0
   -2.5855   -1.3913    0.8920 C   0  0  0  0  0  0  0  0  0  0  0  0
   -3.3745    0.6093    2.0278 C   0  0  0  0  0  0  0  0  0  0  0  0
   -3.8530   -1.6854    0.4376 C   0  0  0  0  0  0  0  0  0  0  0  0
   -4.6559    0.3066    1.5695 C   0  0  0  0  0  0  0  0  0  0  0  0
   -4.9068   -0.8500    0.8052 C   0  0  0  0  0  0  0  0  0  0  0  0
    3.8864   -0.4161   -6.1816 N   0  0  0  0  0  0  0  0  0  0  0  0
   -6.1118   -1.1471    0.3017 F   0  0  0  0  0  0  0  0  0  0  0  0
    3.0799   -1.0364   -7.1113 C   0  0  0  0  0  0  0  0  0  0  0  0
    2.0803   -1.6661   -6.8271 O   0  0  0  0  0  0  0  0  0  0  0  0
  2  1  2  0
  3  2  1  0
  4  1  1  0
  5  4  2  0
  6  5  1  0
  6  3  2  0
  7  2  1  0
  8  5  1  0
  9  8  1  0
 10  9  2  0
 11  9  1  0
 12 10  1  0
 13 11  2  0
 14 13  1  0
 14 12  2  0
 15  7  1  0
 16 15  2  0
 17 15  1  0
 18 16  1  0
 19 17  2  0
 20 19  1  0
 20 18  2  0
 21 14  1  0
 22 20  1  0
 23 21  1  0
 24 23  2  0
M  END
>  <SMILES>  (26) 
O=CNc1ccc(Oc2cnc(Oc3ccc(F)cc3)cn2)cc1

>  <scaffold>  (26) 
pyrazine

$$$$

     RDKit          3D

 15 16  0  0  0  0  0  0  0  0999 V2000
    0.0000    0.0000   -0.0000 C   0  0  0  0  0  0  0  0  0  0  0  0
    0.0000    0.0000    1.3862 C   0  0  0  0  0  0  0  0  0  0  0  0
    1.1281   -0.0000    2.0794 N   0  0  0  0  0  0  0  0  0  0  0  0
    1.1130    0.0000   -0.7172 N   0  0  0  0  0  0  0  0  0  0  0  0
    2.2649    0.0566   -0.0514 C   0  0  0  0  0  0  0  0  0  0  0  0
    2.2642    0.1126    1.3416 C   0  0  0  0  0  0  0  0  0  0  0  0
    3.7467   -0.0025   -0.9288 S   0  0  0  0  0  0  0  0  0  0  0  0
    3.1743   -0.0696   -2.6822 C   0  0  0  0  0  0  0  0  0  0  0  0
    2.8476    1.3005   -3.2034 C   0  0  0  0  0  0  0  0  0  0  0  0
    1.5400    1.6914   -3.3960 C   0  0  0  0  0  0  0  0  0  0  0  0
    3.8661    2.1896   -3.5091 C   0  0  0  0  0  0  0  0  0  0  0  0
    1.2845    2.9899   -3.8344 C   0  0  0  0  0  0  0  0  0  0  0  0
    3.6153    3.4659   -3.9405 C   0  0  0  0  0  0  0  0  0  0  0  0
    2.3083    3.8939   -4.0187 C   0  0  0  0  0  0  0  0  0  0  0  0
   -0.0391    3.2415   -4.0381 O   0  0  0  0  0  0  0  0  0  0  0  0
  2  1  2  0
  3  2  1  0
  4  1  1  0
  5  4  2  0
  6  5  1  0
  6  3  2  0
  7  5  1  0
  8  7  1  0
  9  8  1  0
 10  9  2  0
 11  9  1  0
 12 10  1  0
 13 11  2  0
 14 13  1  0
 14 12  2  0
 15 12  1  0
M  END
>  <SMILES>  (27) 
Oc1cccc(CSc2cnccn2)c1

>  <scaffold>  (27) 
pyrazine

$$$$

     RDKit          3D

 22 24  0  0  0  0  0  0  0  0999 V2000
    0.0000    0.0000    0.0000 C   0  0  0  0  0  0  0  0  0  0  0  0
    0.0000   -0.0000    1.3941 C   0  0  0  0  0  0  0  0  0  0  0  0
    1.1281    0.0000    2.0873 N   0  0  0  0  0  0  0  0  0  0  0  0
    1.1130   -0.0000   -0.7172 N   0  0  0  0  0  0  0  0  0  0  0  0
    2.2324    0.0000    0.0041 C   0  0  0  0  0  0  0  0  0  0  0  0
    2.2324    0.0000    1.3982 C   0  0  0  0  0  0  0  0  0  0  0  0
   -1.5491    0.0000    2.1930 S   0  0  0  0  0  0  0  0  0  0  0  0
   -0.9008   -0.0730    3.9308 C   0  0  0  0  0  0  0  0  0  0  0  0
   -0.9198   -1.4619    4.4308 C   0  0  0  0  0  0  0  0  0  0  0  0
   -1.9003   -1.9654    5.1229 N   0  0  0  0  0  0  0  0  0  0  0  0
    0.1094   -2.3290    4.1331 N   0  0  0  0  0  0  0  0  0  0  0  0
   -1.5140   -3.2582    5.3129 C   0  0  0  0  0  0  0  0  0  0  0  0
   -0.2934   -3.5019    4.7163 C   0  0  0  0  0  0  0  0  0  0  0  0
    1.3229   -2.0968    3.4203 C   0  0  0  0  0  0  0  0  0  0  0  0
    2.3759   -1.4313    4.0463 C   0  0  0  0  0  0  0  0  0  0  0  0
    1.4199   -2.4398    2.0808 C   0  0  0  0  0  0  0  0  0  0  0  0
    3.5297   -1.1822    3.2895 C   0  0  0  0  0  0  0  0  0  0  0  0
    2.5414   -2.1923    1.3475 C   0  0  0  0  0  0  0  0  0  0  0  0
    3.5830   -1.5912    1.9909 C   0  0  0  0  0  0  0  0  0  0  0  0
    2.2254   -0.9449    5.3355 N   0  0  0  0  0  0  0  0  0  0  0  0
    4.6755   -1.4185    1.2491 F   0  0  0  0  0  0  0  0  0  0  0  0
    3.3555   -0.5129    6.1218 C   0  0  0  0  0  0  0  0  0  0  0  0
  2  1  2  0
  3  2  1  0
  4  1  1  0
  5  4  2  0
  6  5  1  0
  6  3  2  0
  7  2  1  0
  8  7  1  0
  9  8  1  0
 10  9  2  0
 11  9  1  0
 12 10  1  0
 13 11  1  0
 13 12  2  0
 14 11  1  0
 15 14  2  0
 16 14  1  0
 17 15  1  0
 18 16  2  0
 19 18  1  0
 19 17  2  0
 20 15  1  0
 21 19  1  0
 22 20  1  0
M  END
>  <SMILES>  (28) 
CNc1cc(F)ccc1-n1ccnc1CSc1cnccn1

>  <scaffold>  (28) 
pyrazine

$$$$

     RDKit          3D

 21 22  0  0  0  0  0  0  0  0999 V2000
   -0.0000    0.0000   -0.0000 C   0  0  0  0  0  0  0  0  0  0  0  0
    0.0000   -0.0000    1.3941 C   0  0  0  0  0  0  0  0  0  0  0  0
    1.1459   -0.0000    2.0726 N   0  0  0  0  0  0  0  0  0  0  0  0
    1.1130    0.0000   -0.7172 N   0  0  0  0  0  0  0  0  0  0  0  0
    2.2324    0.0000    0.0041 C   0  0  0  0  0  0  0  0  0  0  0  0
    2.2324   -0.0000    1.4062 C   0  0  0  0  0  0  0  0  0  0  0  0
   -1.1719   -0.0000    2.1493 N   0  0  0  0  0  0  0  0  0  0  0  0
    3.3699   -0.0478   -0.6720 O   0  0  0  0  0  0  0  0  0  0  0  0
   -2.4752   -0.0000    1.7518 C   0  0  0  0  0  0  0  0  0  0  0  0
   -2.8049   -0.0000    0.5895 O   0  0  0  0  0  0  0  0  0  0  0  0
    3.5074    0.0264   -2.1064 C   0  0  0  0  0  0  0  0  0  0  0  0
   -3.4701   -0.0581    2.8295 C   0  0  0  0  0  0  0  0  0  0  0  0
   -4.8417   -0.0156    2.7004 C   0  0  0  0  0  0  0  0  0  0  0  0
   -2.9940   -0.1225    4.5048 S   0  0  0  0  0  0  0  0  0  0  0  0
   -5.5699   -0.0339    3.9079 C   0  0  0  0  0  0  0  0  0  0  0  0
   -4.6405   -0.0964    4.9408 C   0  0  0  0  0  0  0  0  0  0  0  0
   -6.9197    0.0550    3.9830 O   0  0  0  0  0  0  0  0  0  0  0  0
    3.3747    1.4803   -2.5570 C   0  0  0  0  0  0  0  0  0  0  0  0
   -5.4235    0.0914    1.4730 O   0  0  0  0  0  0  0  0  0  0  0  0
   -5.7666    1.4271    1.1416 C   0  0  0  0  0  0  0  0  0  0  0  0
   -6.2493    1.4038   -0.3078 C   0  0  0  0  0  0  0  0  0  0  0  0
  2  1  2  0
  3  2  1  0
  4  1  1  0
  5  4  2  0
  6  5  1  0
  6  3  2  0
  7  2  1  0
  8  5  1  0
  9  7  1  0
 10  9  2  0
 11  8  1  0
 12  9  1  0
 13 12  2  0
 14 12  1  0
 15 13  1  0
 16 15  2  0
 16 14  1  0
 17 15  1  0
 18 11  1  0
 19 13  1  0
 20 19  1  0
 21 20  1  0
M  END
>  <SMILES>  (29) 
CCOc1cnc(NC(=O)c2scc(O)c2OCC)cn1

>  <scaffold>  (29) 
pyrazine

$$$$

     RDKit          3D

 26 28  0  0  0  0  0  0  0  0999 V2000
    0.0000    0.0000    0.0000 C   0  0  0  0  0  0  0  0  0  0  0  0
   -0.0000   -0.0000    1.3862 C   0  0  0  0  0  0  0  0  0  0  0  0
    1.1346   -0.0000    2.0834 N   0  0  0  0  0  0  0  0  0  0  0  0
    1.1130   -0.0000   -0.7172 N   0  0  0  0  0  0  0  0  0  0  0  0
    2.2260   -0.0000   -0.0000 C   0  0  0  0  0  0  0  0  0  0  0  0
    2.2260    0.0000    1.4102 C   0  0  0  0  0  0  0  0  0  0  0  0
    3.7233    0.0629   -0.8900 S   0  0  0  0  0  0  0  0  0  0  0  0
    3.2486    0.0440   -2.6195 C   0  0  0  0  0  0  0  0  0  0  0  0
    3.5706    1.0863   -3.4746 C   0  0  0  0  0  0  0  0  0  0  0  0
    2.4982   -1.0377   -3.0534 C   0  0  0  0  0  0  0  0  0  0  0  0
    3.2673    1.0935   -4.8353 C   0  0  0  0  0  0  0  0  0  0  0  0
    2.1992   -1.0334   -4.3989 C   0  0  0  0  0  0  0  0  0  0  0  0
    2.5548    0.0031   -5.3093 C   0  0  0  0  0  0  0  0  0  0  0  0
    3.6799    2.1473   -5.5801 O   0  0  0  0  0  0  0  0  0  0  0  0
    3.4408    2.1753   -6.9695 C   0  0  0  0  0  0  0  0  0  0  0  0
    4.1441    3.3721   -7.6080 C   0  0  0  0  0  0  0  0  0  0  0  0
    3.8756    3.4771   -9.0819 C   0  0  0  0  0  0  0  0  0  0  0  0
    2.7011    4.0694   -9.5434 C   0  0  0  0  0  0  0  0  0  0  0  0
    4.7250    2.8595   -9.9989 C   0  0  0  0  0  0  0  0  0  0  0  0
    2.3890    4.1439  -10.8838 C   0  0  0  0  0  0  0  0  0  0  0  0
    4.4109    2.9421  -11.3383 C   0  0  0  0  0  0  0  0  0  0  0  0
    3.2574    3.6176  -11.8391 C   0  0  0  0  0  0  0  0  0  0  0  0
    2.9864    3.7222  -13.3302 C   0  0  2  0  0  0  0  0  0  0  0  0
    2.8916    2.3286  -13.9493 C   0  0  0  0  0  0  0  0  0  0  0  0
    4.0515    4.5556  -14.0220 C   0  0  0  0  0  0  0  0  0  0  0  0
    5.2234    4.2631  -14.0503 O   0  0  0  0  0  0  0  0  0  0  0  0
  2  1  2  0
  3  2  1  0
  4  1  1  0
  5  4  2  0
  6  5  1  0
  6  3  2  0
  7  5  1  0
  8  7  1  0
  9  8  2  0
 10  8  1  0
 11  9  1  0
 12 10  2  0
 13 12  1  0
 13 11  2  0
 14 11  1  0
 15 14  1  0
 16 15  1  0
 17 16  1  0
 18 17  2  0
 19 17  1  0
 20 18  1  0
 21 19  2  0
 22 21  1  0
 22 20  2  0
 23 22  1  0
 23 24  1  6
 25 23  1  0
 26 25  2  0
M  END
>  <SMILES>  (30) 
CC(C=O)c1ccc(CCOc2cccc(Sc3cnccn3)c2)cc1

>  <scaffold>  (30) 
pyrazine

$$$$

     RDKit          3D

 20 22  0  0  0  0  0  0  0  0999 V2000
    0.0000    0.0000    0.0000 N   0  0  0  0  0  0  0  0  0  0  0  0
   -0.0000    0.0000    1.3090 C   0  0  0  0  0  0  0  0  0  0  0  0
    1.1824    0.0000    2.0626 C   0  0  0  0  0  0  0  0  0  0  0  0
    1.1972    0.0000   -0.6174 C   0  0  0  0  0  0  0  0  0  0  0  0
    2.4082    0.0000    0.0071 C   0  0  0  0  0  0  0  0  0  0  0  0
    2.4082   -0.0000    1.3697 N   0  0  0  0  0  0  0  0  0  0  0  0
    3.3751    0.0538    2.3282 C   0  0  0  0  0  0  0  0  0  0  0  0
    2.7593    0.0733    3.5611 C   0  0  0  0  0  0  0  0  0  0  0  0
    1.4123    0.0843    3.4172 N   0  0  0  0  0  0  0  0  0  0  0  0
    3.2985    0.1844    4.9127 C   0  0  0  0  0  0  0  0  0  0  0  0
    2.5037    0.1307    6.0568 C   0  0  0  0  0  0  0  0  0  0  0  0
    4.6719    0.3592    5.0764 C   0  0  0  0  0  0  0  0  0  0  0  0
    2.9631    0.2809    7.3560 C   0  0  0  0  0  0  0  0  0  0  0  0
    5.1285    0.5082    6.3683 C   0  0  0  0  0  0  0  0  0  0  0  0
    4.3430    0.4419    7.4727 C   0  0  0  0  0  0  0  0  0  0  0  0
    1.9164    0.2659    8.7371 Cl  0  0  0  0  0  0  0  0  0  0  0  0
    6.6065    0.7468    6.4868 C   0  0  0  0  0  0  0  0  0  0  0  0
    6.8553    2.2532    6.4288 C   0  0  0  0  0  0  0  0  0  0  0  0
    7.2455    2.8395    5.4557 O   0  0  0  0  0  0  0  0  0  0  0  0
    6.5511    2.8618    7.5825 O   0  0  0  0  0  0  0  0  0  0  0  0
  2  1  2  0
  3  2  1  0
  4  1  1  0
  5  4  2  0
  6  5  1  0
  6  3  1  0
  7  6  1  0
  8  7  2  0
  9  8  1  0
  9  3  2  0
 10  8  1  0
 11 10  2  0
 12 10  1  0
 13 11  1  0
 14 12  2  0
 15 14  1  0
 15 13  2  0
 16 13  1  0
 17 14  1  0
 18 17  1  0
 19 18  2  0
 20 18  1  0
M  END
>  <SMILES>  (31) 
O=C(O)Cc1cc(Cl)cc(-c2cn3ccncc3n2)c1

>  <scaffold>  (31) 
pyrazine

$$$$

     RDKit          3D

 15 16  0  0  0  0  0  0  0  0999 V2000
   -0.0000   -0.0000    0.0000 C   0  0  0  0  0  0  0  0  0  0  0  0
   -0.0000    0.0000    1.3941 C   0  0  0  0  0  0  0  0  0  0  0  0
    1.1281    0.0000    2.0873 N   0  0  0  0  0  0  0  0  0  0  0  0
    1.1130   -0.0000   -0.7172 N   0  0  0  0  0  0  0  0  0  0  0  0
    2.2324    0.0000    0.0041 C   0  0  0  0  0  0  0  0  0  0  0  0
    2.2324    0.0000    1.3982 C   0  0  0  0  0  0  0  0  0  0  0  0
    3.7211    0.0625   -0.8808 S   0  0  0  0  0  0  0  0  0  0  0  0
    3.2382    0.0433   -2.6403 C   0  0  0  0  0  0  0  0  0  0  0  0
    2.4874   -1.2034   -3.0111 C   0  0  0  0  0  0  0  0  0  0  0  0
    1.4407   -0.9792   -3.8034 N   0  0  0  0  0  0  0  0  0  0  0  0
    2.9482   -2.4583   -2.6447 C   0  0  0  0  0  0  0  0  0  0  0  0
    0.7732   -2.0624   -4.1965 C   0  0  0  0  0  0  0  0  0  0  0  0
    2.1920   -3.5399   -3.0940 C   0  0  0  0  0  0  0  0  0  0  0  0
    1.0381   -3.3142   -3.8864 N   0  0  0  0  0  0  0  0  0  0  0  0
    2.5060   -4.7830   -2.7634 O   0  0  0  0  0  0  0  0  0  0  0  0
  2  1  2  0
  3  2  1  0
  4  1  1  0
  5  4  2  0
  6  5  1  0
  6  3  2  0
  7  5  1  0
  8  7  1  0
  9  8  2  0
 10  9  1  0
 11  9  1  0
 12 10  2  0
 13 11  2  0
 14 13  1  0
 14 12  1  0
 15 13  1  0
M  END
>  <SMILES>  (32) 
OC1=CC(=CSc2cnccn2)N=CN1

>  <scaffold>  (32) 
pyrazine

$$$$

     RDKit          3D

 25 27  0  0  0  0  0  0  0  0999 V2000
    0.0000   -0.0000   -0.0000 C   0  0  0  0  0  0  0  0  0  0  0  0
   -0.0000    0.0000    1.3862 C   0  0  0  0  0  0  0  0  0  0  0  0
    1.1346    0.0000    2.0834 N   0  0  0  0  0  0  0  0  0  0  0  0
    1.1130   -0.0000   -0.7172 N   0  0  0  0  0  0  0  0  0  0  0  0
    2.2324   -0.0000    0.0041 C   0  0  0  0  0  0  0  0  0  0  0  0
    2.2324   -0.0000    1.4062 C   0  0  0  0  0  0  0  0  0  0  0  0
    3.4232    0.0500   -0.7037 N   0  0  0  0  0  0  0  0  0  0  0  0
    3.7372    0.0387   -2.0295 C   0  0  0  0  0  0  0  0  0  0  0  0
    4.8383    0.1366   -2.4819 O   0  0  0  0  0  0  0  0  0  0  0  0
    2.6421   -0.0974   -2.7885 O   0  0  0  0  0  0  0  0  0  0  0  0
    2.7552   -0.0758   -4.1779 C   0  0  0  0  0  0  0  0  0  0  0  0
    1.9663   -0.9861   -4.8638 C   0  0  0  0  0  0  0  0  0  0  0  0
    3.5380    0.8292   -4.8617 C   0  0  0  0  0  0  0  0  0  0  0  0
    2.0074   -0.9681   -6.2256 C   0  0  0  0  0  0  0  0  0  0  0  0
    3.5799    0.8433   -6.2392 C   0  0  0  0  0  0  0  0  0  0  0  0
    2.7920   -0.0932   -6.9904 C   0  0  0  0  0  0  0  0  0  0  0  0
    2.7870   -0.2384   -8.7272 S   0  0  0  0  0  0  0  0  0  0  0  0
    4.0734    0.9188   -9.3386 C   0  0  0  0  0  0  0  0  0  0  0  0
    5.4568    0.4753   -8.9934 C   0  0  0  0  0  0  0  0  0  0  0  0
    5.9081   -0.7850   -9.3829 C   0  0  0  0  0  0  0  0  0  0  0  0
    6.3129    1.2939   -8.2581 C   0  0  0  0  0  0  0  0  0  0  0  0
    7.1583   -1.2564   -9.0448 C   0  0  0  0  0  0  0  0  0  0  0  0
    7.5704    0.8193   -7.9195 C   0  0  0  0  0  0  0  0  0  0  0  0
    8.0226   -0.4767   -8.2921 C   0  0  0  0  0  0  0  0  0  0  0  0
    9.2547   -1.0320   -8.0652 O   0  0  0  0  0  0  0  0  0  0  0  0
  2  1  2  0
  3  2  1  0
  4  1  1  0
  5  4  2  0
  6  5  1  0
  6  3  2  0
  7  5  1  0
  8  7  1  0
  9  8  2  0
 10  8  1  0
 11 10  1  0
 12 11  2  0
 13 11  1  0
 14 12  1  0
 15 13  2  0
 16 15  1  0
 16 14  2  0
 17 16  1  0
 18 17  1  0
 19 18  1  0
 20 19  2  0
 21 19  1  0
 22 20  1  0
 23 21  2  0
 24 23  1  0
 24 22  2  0
 25 24  1  0
M  END
>  <SMILES>  (33) 
O=C(Nc1cnccn1)Oc1ccc(SCc2ccc(O)cc2)cc1

>  <scaffold>  (33) 
pyrazine

$$$$

     RDKit          3D

 34 36  0  0  0  0  0  0  0  0999 V2000
    0.0000   -0.0000    0.0000 C   0  0  0  0  0  0  0  0  0  0  0  0
    0.0000   -0.0000    1.3862 C   0  0  0  0  0  0  0  0  0  0  0  0
    1.1281   -0.0000    2.0794 N   0  0  0  0  0  0  0  0  0  0  0  0
    1.1067    0.0000   -0.7131 N   0  0  0  0  0  0  0  0  0  0  0  0
    2.2261    0.0000    0.0082 C   0  0  0  0  0  0  0  0  0  0  0  0
    2.2261   -0.0000    1.4103 C   0  0  0  0  0  0  0  0  0  0  0  0
    3.3766   -0.0483   -0.6757 O   0  0  0  0  0  0  0  0  0  0  0  0
    3.5687    0.0854   -2.0339 C   0  0  0  0  0  0  0  0  0  0  0  0
    2.7698    0.9545   -2.7605 C   0  0  0  0  0  0  0  0  0  0  0  0
    4.5573   -0.6397   -2.6806 C   0  0  0  0  0  0  0  0  0  0  0  0
    3.0944    1.0412   -4.1054 C   0  0  0  0  0  0  0  0  0  0  0  0
    4.8802   -0.5531   -4.0177 C   0  0  0  0  0  0  0  0  0  0  0  0
    4.1465    0.3961   -4.7190 C   0  0  0  0  0  0  0  0  0  0  0  0
    4.4778    0.4976   -6.4788 S   0  0  0  0  0  6  0  0  0  0  0  0
    5.7055   -0.1184   -6.8632 O   0  0  0  0  0  0  0  0  0  0  0  0
    4.2482    1.8427   -6.8348 O   0  0  0  0  0  0  0  0  0  0  0  0
    3.1899   -0.4146   -7.0936 N   0  0  0  0  0  0  0  0  0  0  0  0
    2.9359   -1.7323   -6.7465 C   0  0  0  0  0  0  0  0  0  0  0  0
    1.6323   -2.2150   -6.6403 C   0  0  0  0  0  0  0  0  0  0  0  0
    3.9996   -2.6117   -6.5497 C   0  0  0  0  0  0  0  0  0  0  0  0
    1.4258   -3.5343   -6.2400 C   0  0  0  0  0  0  0  0  0  0  0  0
    3.7937   -3.9495   -6.2505 C   0  0  0  0  0  0  0  0  0  0  0  0
    2.5053   -4.3845   -6.0042 C   0  0  0  0  0  0  0  0  0  0  0  0
    4.8002   -4.8552   -6.0981 O   0  0  0  0  0  0  0  0  0  0  0  0
    6.1269   -4.4272   -6.2490 C   0  0  0  0  0  0  0  0  0  0  0  0
    0.1692   -4.0347   -6.0753 O   0  0  0  0  0  0  0  0  0  0  0  0
   -0.9744   -3.2416   -6.3022 C   0  0  0  0  0  0  0  0  0  0  0  0
   -2.2359   -4.0426   -5.9835 C   0  0  0  0  0  0  0  0  0  0  0  0
   -3.5076   -3.2440   -6.2658 C   0  0  0  0  0  0  0  0  0  0  0  0
   -4.7992   -4.0206   -6.0147 C   0  0  0  0  0  0  0  0  0  0  0  0
   -5.0245   -5.1137   -7.0582 C   0  0  0  0  0  0  0  0  0  0  0  0
   -6.3523   -5.8223   -6.7947 C   0  0  0  0  0  0  0  0  0  0  0  0
   -6.5995   -6.9631   -7.7805 C   0  0  0  0  0  0  0  0  0  0  0  0
   -7.9099   -7.6717   -7.4410 C   0  0  0  0  0  0  0  0  0  0  0  0
  2  1  2  0
  3  2  1  0
  4  1  1  0
  5  4  2  0
  6  5  1  0
  6  3  2  0
  7  5  1  0
  8  7  1  0
  9  8  2  0
 10  8  1  0
 11  9  1  0
 12 10  2  0
 13 12  1  0
 13 11  2  0
 14 13  1  0
 15 14  2  0
 16 14  2  0
 17 14  1  0
 18 17  1  0
 19 18  2  0
 20 18  1  0
 21 19  1  0
 22 20  2  0
 23 22  1  0
 23 21  2  0
 24 22  1  0
 25 24  1  0
 26 21  1  0
 27 26  1  0
 28 27  1  0
 29 28  1  0
 30 29  1  0
 31 30  1  0
 32 31  1  0
 33 32  1  0
 34 33  1  0
M  END
>  <SMILES>  (34) 
CCCCCCCCOc1cc(NS(=O)(=O)c2ccc(Oc3cnccn3)cc2)cc(OC)c1

>  <scaffold>  (34) 
pyrazine

$$$$

     RDKit          3D

 29 31  0  0  0  0  0  0  0  0999 V2000
   -0.0000    0.0000    0.0000 C   0  0  0  0  0  0  0  0  0  0  0  0
   -0.0000    0.0000    1.3941 C   0  0  0  0  0  0  0  0  0  0  0  0
    1.1281   -0.0000    2.0873 N   0  0  0  0  0  0  0  0  0  0  0  0
    1.1067   -0.0000   -0.7131 N   0  0  0  0  0  0  0  0  0  0  0  0
    2.2261   -0.0000    0.0082 C   0  0  0  0  0  0  0  0  0  0  0  0
    2.2261    0.0000    1.4023 C   0  0  0  0  0  0  0  0  0  0  0  0
    3.6552    0.0629   -0.9875 S   0  0  0  0  0  0  0  0  0  0  0  0
   -1.1768    0.0000    2.0010 O   0  0  0  0  0  0  0  0  0  0  0  0
   -1.2280   -0.0512    3.4174 C   0  0  0  0  0  0  0  0  0  0  0  0
    3.0778    0.1756   -2.7036 C   0  0  0  0  0  0  0  0  0  0  0  0
   -1.0480   -1.4520    3.9023 C   0  0  0  0  0  0  0  0  0  0  0  0
    0.0566   -2.1312    4.0815 N   0  0  0  0  0  0  0  0  0  0  0  0
   -2.0829   -2.2951    4.1755 N   0  0  0  0  0  0  0  0  0  0  0  0
   -0.2642   -3.3917    4.4873 O   0  0  0  0  0  0  0  0  0  0  0  0
   -1.5480   -3.4227    4.5180 C   0  0  0  0  0  0  0  0  0  0  0  0
   -2.2590   -4.6632    4.8499 C   0  0  0  0  0  0  0  0  0  0  0  0
   -1.7193   -5.7088    5.1237 O   0  0  0  0  0  0  0  0  0  0  0  0
   -3.5834   -4.4879    4.7537 O   0  0  0  0  0  0  0  0  0  0  0  0
   -4.4840   -5.4935    5.0687 C   0  0  0  0  0  0  0  0  0  0  0  0
   -4.3839   -6.3477    6.1558 C   0  0  0  0  0  0  0  0  0  0  0  0
   -5.6047   -5.5291    4.2673 C   0  0  0  0  0  0  0  0  0  0  0  0
   -5.3799   -7.2817    6.3947 C   0  0  0  0  0  0  0  0  0  0  0  0
   -6.5983   -6.4512    4.5163 C   0  0  0  0  0  0  0  0  0  0  0  0
   -6.4831   -7.3218    5.5960 C   0  0  0  0  0  0  0  0  0  0  0  0
   -7.7221   -6.4166    3.7192 O   0  0  0  0  0  0  0  0  0  0  0  0
   -7.7107   -6.2868    2.3707 C   0  0  0  0  0  0  0  0  0  0  0  0
   -6.6584   -6.2440    1.7645 O   0  0  0  0  0  0  0  0  0  0  0  0
   -8.8991   -6.2210    1.7735 N   0  0  0  0  0  0  0  0  0  0  0  0
   -9.1002   -6.1395    0.3471 C   0  0  0  0  0  0  0  0  0  0  0  0
  2  1  2  0
  3  2  1  0
  4  1  1  0
  5  4  2  0
  6  5  1  0
  6  3  2  0
  7  5  1  0
  8  2  1  0
  9  8  1  0
 10  7  1  0
 11  9  1  0
 12 11  2  0
 13 11  1  0
 14 12  1  0
 15 14  1  0
 15 13  2  0
 16 15  1  0
 17 16  2  0
 18 16  1  0
 19 18  1  0
 20 19  2  0
 21 19  1  0
 22 20  1  0
 23 21  2  0
 24 23  1  0
 24 22  2  0
 25 23  1  0
 26 25  1  0
 27 26  2  0
 28 26  1  0
 29 28  1  0
M  END
>  <SMILES>  (35) 
CNC(=O)Oc1cccc(OC(=O)c2nc(COc3cnc(SC)cn3)no2)c1

>  <scaffold>  (35) 
pyrazine

$$$$

     RDKit          3D

 35 37  0  0  0  0  0  0  0  0999 V2000
   -0.0000    0.0000   -0.0000 C   0  0  0  0  0  0  0  0  0  0  0  0
   -0.0000   -0.0000    1.3782 C   0  0  0  0  0  0  0  0  0  0  0  0
    1.1411   -0.0000    2.0795 N   0  0  0  0  0  0  0  0  0  0  0  0
    1.1585   -0.0569   -0.6697 N   0  0  0  0  0  0  0  0  0  0  0  0
    2.2987   -0.0569   -0.0114 C   0  0  0  0  0  0  0  0  0  0  0  0
    2.3016    0.0634    1.4017 C   0  0  2  0  0  0  0  0  0  0  0  0
    3.5069    0.1075    2.0356 N   0  0  0  0  0  0  0  0  0  0  0  0
    3.4719   -0.1602   -0.6328 O   0  0  0  0  0  0  0  0  0  0  0  0
   -1.2552    0.0000   -0.8089 C   0  0  0  0  0  0  0  0  0  0  0  0
    3.5270   -0.3940   -2.0061 C   0  0  0  0  0  0  0  0  0  0  0  0
    4.4619   -1.3447   -2.4130 C   0  0  0  0  0  0  0  0  0  0  0  0
    2.7750    0.3203   -2.9258 C   0  0  0  0  0  0  0  0  0  0  0  0
    4.5872   -1.5747   -3.7742 C   0  0  0  0  0  0  0  0  0  0  0  0
    2.8996    0.0868   -4.2784 C   0  0  0  0  0  0  0  0  0  0  0  0
    3.7771   -0.9367   -4.7242 C   0  0  0  0  0  0  0  0  0  0  0  0
    3.9566   -1.2781   -6.0068 O   0  0  0  0  0  0  0  0  0  0  0  0
    5.4582   -2.5350   -4.2181 O   0  0  0  0  0  0  0  0  0  0  0  0
    3.2089   -0.6343   -6.9918 C   0  0  0  0  0  0  0  0  0  0  0  0
    1.8253   -0.7765   -7.0869 C   0  0  0  0  0  0  0  0  0  0  0  0
    3.9110    0.1080   -7.9403 C   0  0  0  0  0  0  0  0  0  0  0  0
    1.1348   -0.1595   -8.1076 C   0  0  0  0  0  0  0  0  0  0  0  0
    3.2141    0.7248   -8.9676 C   0  0  0  0  0  0  0  0  0  0  0  0
    1.8221    0.5512   -9.0679 C   0  0  0  0  0  0  0  0  0  0  0  0
    6.3311   -3.2268   -3.3664 C   0  0  0  0  0  0  0  0  0  0  0  0
    7.4677   -2.3345   -2.8701 C   0  0  0  0  0  0  0  0  0  0  0  0
    8.4787   -3.0566   -1.9808 C   0  0  0  0  0  0  0  0  0  0  0  0
    7.8932   -3.4058   -0.6036 C   0  0  0  0  0  0  0  0  0  0  0  0
    8.9847   -3.9945    0.2888 C   0  0  0  0  0  0  0  0  0  0  0  0
    8.4464   -4.4051    1.6391 C   0  0  0  0  0  0  0  0  0  0  0  0
    7.3498   -4.3414    2.0905 O   0  0  0  0  0  0  0  0  0  0  0  0
    9.4384   -4.8670    2.3981 O   0  0  0  0  0  0  0  0  0  0  0  0
    9.0633   -5.2399    3.7316 C   0  0  0  0  0  0  0  0  0  0  0  0
   10.2988   -5.6938    4.5073 C   0  0  0  0  0  0  0  0  0  0  0  0
    9.9784   -5.9685    5.9849 C   0  0  0  0  0  0  0  0  0  0  0  0
   11.2239   -6.4674    6.6974 C   0  0  0  0  0  0  0  0  0  0  0  0
  2  1  2  0
  3  2  1  0
  4  1  1  0
  5  4  2  0
  6  5  1  0
  6  3  1  0
  6  7  1  1
  8  5  1  0
  9  1  1  0
 10  8  1  0
 11 10  2  0
 12 10  1  0
 13 11  1  0
 14 12  2  0
 15 14  1  0
 15 13  2  0
 16 15  1  0
 17 13  1  0
 18 16  1  0
 19 18  2  0
 20 18  1  0
 21 19  1  0
 22 20  2  0
 23 22  1  0
 23 21  2  0
 24 17  1  0
 25 24  1  0
 26 25  1  0
 27 26  1  0
 28 27  1  0
 29 28  1  0
 30 29  2  0
 31 29  1  0
 32 31  1  0
 33 32  1  0
 34 33  1  0
 35 34  1  0
M  END
>  <SMILES>  (36) 
CCCCOC(=O)CCCCCOc1cc(OC2=NC(C)=CNC2N)ccc1Oc1ccccc1

>  <scaffold>  (36) 
pyrazine

$$$$

     RDKit          3D

 30 32  0  0  0  0  0  0  0  0999 V2000
    0.0000    0.0000    0.0000 C   0  0  0  0  0  0  0  0  0  0  0  0
   -0.0000   -0.0000    1.4102 C   0  0  0  0  0  0  0  0  0  0  0  0
    1.1394   -0.0000    2.0848 N   0  0  0  0  0  0  0  0  0  0  0  0
    1.1453    0.0563   -0.6620 N   0  0  0  0  0  0  0  0  0  0  0  0
    2.2986    0.0563    0.0038 C   0  0  0  0  0  0  0  0  0  0  0  0
    2.3015   -0.0620    1.3929 C   0  0  0  0  0  0  0  0  0  0  0  0
   -1.1904   -0.0000    2.0240 O   0  0  0  0  0  0  0  0  0  0  0  0
   -1.1181   -0.0549   -0.8040 N   0  0  0  0  0  0  0  0  0  0  0  0
   -2.2914   -0.5409   -0.3550 N   0  0  0  0  0  0  0  0  0  0  0  0
   -1.1891    0.2845   -2.1297 C   0  0  0  0  0  0  0  0  0  0  0  0
   -3.1392   -0.5079   -1.3617 C   0  0  0  0  0  0  0  0  0  0  0  0
   -2.4679    0.0223   -2.5201 C   0  0  0  0  0  0  0  0  0  0  0  0
    3.7723   -0.1304    2.3068 Cl  0  0  0  0  0  0  0  0  0  0  0  0
   -1.2449   -0.3445    3.3574 C   0  0  0  0  0  0  0  0  0  0  0  0
   -2.1125    0.4091    4.1183 C   0  0  0  0  0  0  0  0  0  0  0  0
   -0.5676   -1.4178    3.9148 C   0  0  0  0  0  0  0  0  0  0  0  0
   -2.2386    0.0647    5.4633 C   0  0  0  0  0  0  0  0  0  0  0  0
   -0.6926   -1.7551    5.2534 C   0  0  0  0  0  0  0  0  0  0  0  0
   -1.5867   -1.0119    6.0248 C   0  0  0  0  0  0  0  0  0  0  0  0
   -3.0804    0.9105    6.1210 O   0  0  0  0  0  0  0  0  0  0  0  0
   -0.0961   -2.8101    5.8234 O   0  0  0  0  0  0  0  0  0  0  0  0
   -3.2012    0.6302    7.5060 C   0  0  0  0  0  0  0  0  0  0  0  0
   -4.2259    1.6701    7.9565 C   0  0  0  0  0  0  0  0  0  0  0  0
   -4.4887    1.6927    9.1214 O   0  0  0  0  0  0  0  0  0  0  0  0
   -4.8101    2.5192    7.1133 O   0  0  0  0  0  0  0  0  0  0  0  0
   -5.7330    3.5832    7.3392 C   0  0  0  0  0  0  0  0  0  0  0  0
   -7.0967    2.9860    7.6827 C   0  0  0  0  0  0  0  0  0  0  0  0
   -7.7071    2.1891    6.5308 C   0  0  0  0  0  0  0  0  0  0  0  0
   -9.0413    1.5691    6.9427 C   0  0  0  0  0  0  0  0  0  0  0  0
   -9.6676    0.7151    5.8414 C   0  0  0  0  0  0  0  0  0  0  0  0
  2  1  1  0
  3  2  2  0
  4  1  2  0
  5  4  1  0
  6  5  2  0
  6  3  1  0
  7  2  1  0
  8  1  1  0
  9  8  1  0
 10  8  1  0
 11  9  2  0
 12 11  1  0
 12 10  2  0
 13  6  1  0
 14  7  1  0
 15 14  2  0
 16 14  1  0
 17 15  1  0
 18 16  2  0
 19 18  1  0
 19 17  2  0
 20 17  1  0
 21 18  1  0
 22 20  1  0
 23 22  1  0
 24 23  2  0
 25 23  1  0
 26 25  1  0
 27 26  1  0
 28 27  1  0
 29 28  1  0
 30 29  1  0
M  END
>  <SMILES>  (37) 
CCCCCOC(=O)COc1cc(O)cc(Oc2nc(Cl)cnc2-n2cccn2)c1

>  <scaffold>  (37) 
pyrazine

$$$$

     RDKit          3D

 36 38  0  0  0  0  0  0  0  0999 V2000
   -0.0000    0.0000    0.0000 C   0  0  0  0  0  0  0  0  0  0  0  0
   -0.0000   -0.0000    1.3782 C   0  0  0  0  0  0  0  0  0  0  0  0
    1.1459    0.0000    2.0567 N   0  0  0  0  0  0  0  0  0  0  0  0
    1.1194   -0.0000   -0.7213 N   0  0  0  0  0  0  0  0  0  0  0  0
    2.2324    0.0000   -0.0041 C   0  0  0  0  0  0  0  0  0  0  0  0
    2.2324   -0.0000    1.4061 C   0  0  0  0  0  0  0  0  0  0  0  0
    3.4300   -0.0503   -0.7160 N   0  0  0  0  0  0  0  0  0  0  0  0
    3.7413   -0.1650   -2.0376 C   0  0  0  0  0  0  0  0  0  0  0  0
    4.8587   -0.2409   -2.4907 O   0  0  0  0  0  0  0  0  0  0  0  0
    2.6325   -0.1854   -2.8022 O   0  0  0  0  0  0  0  0  0  0  0  0
    2.7434   -0.3499   -4.1582 C   0  0  0  0  0  0  0  0  0  0  0  0
    1.7243    0.2537   -4.8934 C   0  0  0  0  0  0  0  0  0  0  0  0
    3.6981   -1.1152   -4.8097 C   0  0  0  0  0  0  0  0  0  0  0  0
    1.6975    0.1125   -6.2641 C   0  0  0  0  0  0  0  0  0  0  0  0
    3.6737   -1.2453   -6.1816 C   0  0  0  0  0  0  0  0  0  0  0  0
    2.6430   -0.6727   -6.9052 C   0  0  2  0  0  0  0  0  0  0  0  0
    2.6890   -0.8139   -8.3825 C   0  0  0  0  0  0  0  0  0  0  0  0
    3.4636   -1.5169   -8.9732 O   0  0  0  0  0  0  0  0  0  0  0  0
    1.7541   -0.0573   -8.9891 O   0  0  0  0  0  0  0  0  0  0  0  0
    1.6218    0.0330  -10.3659 C   0  0  0  0  0  0  0  0  0  0  0  0
    0.3447    0.2686  -10.8728 C   0  0  0  0  0  0  0  0  0  0  0  0
    2.6929   -0.0511  -11.2291 C   0  0  0  0  0  0  0  0  0  0  0  0
    0.0937    0.4322  -12.2262 C   0  0  0  0  0  0  0  0  0  0  0  0
    2.4404    0.1064  -12.5749 C   0  0  0  0  0  0  0  0  0  0  0  0
    1.1744    0.2942  -13.0961 C   0  0  0  0  0  0  0  0  0  0  0  0
    1.0425    0.3801  -14.4495 O   0  0  0  0  0  0  0  0  0  0  0  0
   -0.1424    0.7940  -15.0563 C   0  0  0  0  0  0  0  0  0  0  0  0
   -0.3222    2.3070  -14.9428 C   0  0  0  0  0  0  0  0  0  0  0  0
   -1.6035    2.7146  -15.6683 C   0  0  0  0  0  0  0  0  0  0  0  0
   -1.7881    4.1286  -15.6331 O   0  0  0  0  0  0  0  0  0  0  0  0
   -2.2375    4.6756  -14.5321 C   0  0  0  0  0  0  0  0  0  0  0  0
   -2.5086    4.0600  -13.5368 O   0  0  0  0  0  0  0  0  0  0  0  0
   -2.4439    6.1848  -14.6500 C   0  0  0  0  0  0  0  0  0  0  0  0
   -2.1312    6.8645  -13.4067 N   0  0  0  0  0  0  0  0  0  0  0  0
   -2.1056    8.3105  -13.5263 C   0  0  0  0  0  0  0  0  0  0  0  0
   -1.7190    8.9746  -12.2057 C   0  0  0  0  0  0  0  0  0  0  0  0
  2  1  2  0
  3  2  1  0
  4  1  1  0
  5  4  2  0
  6  5  1  0
  6  3  2  0
  7  5  1  0
  8  7  1  0
  9  8  2  0
 10  8  1  0
 11 10  1  0
 12 11  1  0
 13 11  2  0
 14 12  1  0
 15 13  1  0
 16 15  1  0
 16 14  1  0
 16 17  1  1
 18 17  2  0
 19 17  1  0
 20 19  1  0
 21 20  2  0
 22 20  1  0
 23 21  1  0
 24 22  2  0
 25 24  1  0
 25 23  2  0
 26 25  1  0
 27 26  1  0
 28 27  1  0
 29 28  1  0
 30 29  1  0
 31 30  1  0
 32 31  2  0
 33 31  1  0
 34 33  1  0
 35 34  1  0
 36 35  1  0
M  END
>  <SMILES>  (38) 
CCNCC(=O)OCCCOc1ccc(OC(=O)C2CC=C(OC(=O)Nc3cnccn3)CC2)cc1

>  <scaffold>  (38) 
pyrazine

$$$$

     RDKit          3D

 24 25  0  0  0  0  0  0  0  0999 V2000
   -0.0000    0.0000   -0.0000 C   0  0  0  0  0  0  0  0  0  0  0  0
    0.0000    0.0000    1.3862 C   0  0  0  0  0  0  0  0  0  0  0  0
    1.1281    0.0000    2.0794 N   0  0  0  0  0  0  0  0  0  0  0  0
    1.1130    0.0000   -0.7172 N   0  0  0  0  0  0  0  0  0  0  0  0
    2.2324   -0.0000    0.0041 C   0  0  0  0  0  0  0  0  0  0  0  0
    2.2324   -0.0000    1.3982 C   0  0  0  0  0  0  0  0  0  0  0  0
    3.3244    0.0480   -0.7567 O   0  0  0  0  0  0  0  0  0  0  0  0
    4.5362   -0.0825   -0.0473 C   0  0  0  0  0  0  0  0  0  0  0  0
    5.5835    0.3672   -1.0648 C   0  0  0  0  0  0  0  0  0  0  0  0
    6.7255    0.2905   -0.6780 O   0  0  0  0  0  0  0  0  0  0  0  0
    5.2358    0.8154   -2.3037 N   0  0  0  0  0  0  0  0  0  0  0  0
    5.9005    1.3323   -3.4049 C   0  0  0  0  0  0  0  0  0  0  0  0
    5.2536    1.7351   -4.4784 N   0  0  0  0  0  0  0  0  0  0  0  0
    7.2928    1.4599   -3.2996 C   0  0  0  0  0  0  0  0  0  0  0  0
    5.8391    2.2751   -5.5267 C   0  0  0  0  0  0  0  0  0  0  0  0
    7.8374    2.0385   -4.4451 C   0  0  0  0  0  0  0  0  0  0  0  0
    7.2001    2.4346   -5.5167 C   0  0  0  0  0  0  0  0  0  0  0  0
    9.1585    2.2589   -4.4389 O   0  0  0  0  0  0  0  0  0  0  0  0
   10.0814    2.0405   -3.3953 C   0  0  0  0  0  0  0  0  0  0  0  0
   11.5322    2.4432   -3.6552 C   0  0  2  0  0  0  0  0  0  0  0  0
   11.9942    1.5827   -4.8530 C   0  0  0  0  0  0  0  0  0  0  0  0
   12.4548    2.3688   -2.6127 O   0  0  0  0  0  0  0  0  0  0  0  0
   12.0536    0.2229   -4.5904 O   0  0  0  0  0  0  0  0  0  0  0  0
   13.1999   -0.2376   -3.8937 C   0  0  0  0  0  0  0  0  0  0  0  0
  2  1  2  0
  3  2  1  0
  4  1  1  0
  5  4  2  0
  6  5  1  0
  6  3  2  0
  7  5  1  0
  8  7  1  0
  9  8  1  0
 10  9  2  0
 11  9  1  0
 12 11  1  0
 13 12  2  0
 14 12  1  0
 15 13  1  0
 16 14  2  0
 17 15  2  0
 17 16  1  0
 18 16  1  0
 19 18  1  0
 20 19  1  0
 21 20  1  0
 20 22  1  1
 23 21  1  0
 24 23  1  0
M  END
>  <SMILES>  (39) 
COCC(O)COc1ccnc(NC(=O)COc2cnccn2)c1

>  <scaffold>  (39) 
pyrazine

$$$$

     RDKit          3D

 24 26  0  0  0  0  0  0  0  0999 V2000
   -0.0000    0.0000    0.0000 N   0  0  0  0  0  0  0  0  0  0  0  0
   -0.0000    0.0000    1.3015 C   0  0  0  0  0  0  0  0  0  0  0  0
    1.1824   -0.0000    2.0552 C   0  0  0  0  0  0  0  0  0  0  0  0
    1.1972    0.0000   -0.6174 C   0  0  0  0  0  0  0  0  0  0  0  0
    2.4082    0.0000    0.0071 C   0  0  0  0  0  0  0  0  0  0  0  0
    2.4082    0.0000    1.3697 N   0  0  0  0  0  0  0  0  0  0  0  0
    3.4397   -0.0525    2.1983 N   0  0  0  0  0  0  0  0  0  0  0  0
    2.9725   -0.0812    3.4450 C   0  0  0  0  0  0  0  0  0  0  0  0
    1.5731    0.0067    3.4450 C   0  0  0  0  0  0  0  0  0  0  0  0
    3.7925   -0.0829    4.6725 C   0  0  0  0  0  0  0  0  0  0  0  0
    3.4066   -0.1527    5.8300 O   0  0  0  0  0  0  0  0  0  0  0  0
    5.1086   -0.0513    4.3871 N   0  0  0  0  0  0  0  0  0  0  0  0
    6.1428    0.0123    5.4148 C   0  0  0  0  0  0  0  0  0  0  0  0
    6.0446   -1.2130    6.3369 C   0  0  0  0  0  0  0  0  0  0  0  0
    6.2239   -2.5427    5.6059 C   0  0  0  0  0  0  0  0  0  0  0  0
    5.9679    1.2838    6.2597 C   0  0  0  0  0  0  0  0  0  0  0  0
    7.4707   -0.0306    4.6603 C   0  0  0  0  0  0  0  0  0  0  0  0
    4.0022    0.0636   -0.7434 S   0  0  0  0  0  0  0  0  0  0  0  0
    3.7351   -0.0853   -2.5211 C   0  0  0  0  0  0  0  0  0  0  0  0
    3.1893   -1.2213   -3.0982 C   0  0  0  0  0  0  0  0  0  0  0  0
    4.2228    0.9497   -3.2753 C   0  0  0  0  0  0  0  0  0  0  0  0
    3.0487   -1.3089   -4.4745 C   0  0  0  0  0  0  0  0  0  0  0  0
    4.0862    0.8563   -4.6356 C   0  0  0  0  0  0  0  0  0  0  0  0
    3.5107   -0.2775   -5.2770 C   0  0  0  0  0  0  0  0  0  0  0  0
  2  1  2  0
  3  2  1  0
  4  1  1  0
  5  4  2  0
  6  5  1  0
  6  3  1  0
  7  6  1  0
  8  7  2  0
  9  8  1  0
  9  3  2  0
 10  8  1  0
 11 10  2  0
 12 10  1  0
 13 12  1  0
 14 13  1  0
 15 14  1  0
 16 13  1  0
 17 13  1  0
 18  5  1  0
 19 18  1  0
 20 19  2  0
 21 19  1  0
 22 20  1  0
 23 21  2  0
 24 23  1  0
 24 22  2  0
M  END
>  <SMILES>  (40) 
CCC(C)(C)NC(=O)c1cc2cncc(Sc3ccccc3)n2n1

>  <scaffold>  (40) 
pyrazine

$$$$

     RDKit          3D

 21 22  0  0  0  0  0  0  0  0999 V2000
   -0.0000   -0.0000    0.0000 C   0  0  0  0  0  0  0  0  0  0  0  0
    0.0000    0.0000    1.3941 C   0  0  0  0  0  0  0  0  0  0  0  0
    1.1281   -0.0000    2.0873 N   0  0  0  0  0  0  0  0  0  0  0  0
    1.1388   -0.0559   -0.6583 N   0  0  0  0  0  0  0  0  0  0  0  0
    2.2568   -0.1109    0.0631 C   0  0  0  0  0  0  0  0  0  0  0  0
    2.2590   -0.0517    1.4559 C   0  0  0  0  0  0  0  0  0  0  0  0
   -1.4567   -0.0000    2.3328 S   0  0  0  0  0  0  0  0  0  0  0  0
    3.4336   -0.2190   -0.6766 N   0  0  0  0  0  0  0  0  0  0  0  0
    4.7053   -0.3483   -0.2518 C   0  0  0  0  0  0  0  0  0  0  0  0
    5.0720   -0.3383    0.8994 O   0  0  0  0  0  0  0  0  0  0  0  0
   -0.7549   -0.2129    4.0150 C   0  0  0  0  0  0  0  0  0  0  0  0
    5.5658   -0.4757   -1.2702 O   0  0  0  0  0  0  0  0  0  0  0  0
   -0.1144   -1.5280    4.2140 C   0  0  0  0  0  0  0  0  0  0  0  0
   -0.6448   -2.7900    4.1510 C   0  0  0  0  0  0  0  0  0  0  0  0
    1.1895   -1.5700    4.5170 O   0  0  0  0  0  0  0  0  0  0  0  0
    0.4004   -3.6748    4.3656 C   0  0  0  0  0  0  0  0  0  0  0  0
    1.4716   -2.8778    4.5785 C   0  0  0  0  0  0  0  0  0  0  0  0
    2.8809   -3.2230    4.9661 C   0  0  0  0  0  0  0  0  0  0  0  0
    6.9682   -0.5684   -1.0267 C   0  0  0  0  0  0  0  0  0  0  0  0
    7.5716    0.7936   -0.6873 C   0  0  0  0  0  0  0  0  0  0  0  0
    9.0600    0.6312   -0.3828 C   0  0  0  0  0  0  0  0  0  0  0  0
  2  1  2  0
  3  2  1  0
  4  1  1  0
  5  4  2  0
  6  5  1  0
  6  3  2  0
  7  2  1  0
  8  5  1  0
  9  8  1  0
 10  9  2  0
 11  7  1  0
 12  9  1  0
 13 11  1  0
 14 13  2  0
 15 13  1  0
 16 14  1  0
 17 16  2  0
 17 15  1  0
 18 17  1  0
 19 12  1  0
 20 19  1  0
 21 20  1  0
M  END
>  <SMILES>  (41) 
CCCOC(=O)Nc1cnc(SCc2ccc(C)o2)cn1

>  <scaffold>  (41) 
pyrazine

$$$$

     RDKit          3D

 19 20  0  0  0  0  0  0  0  0999 V2000
   -0.0000    0.0000    0.0000 C   0  0  0  0  0  0  0  0  0  0  0  0
    0.0000   -0.0000    1.3941 C   0  0  0  0  0  0  0  0  0  0  0  0
    1.1281    0.0000    2.0873 N   0  0  0  0  0  0  0  0  0  0  0  0
    1.1130    0.0000   -0.7172 N   0  0  0  0  0  0  0  0  0  0  0  0
    2.2324   -0.0000    0.0041 C   0  0  0  0  0  0  0  0  0  0  0  0
    2.2324   -0.0000    1.4062 C   0  0  0  0  0  0  0  0  0  0  0  0
   -1.5580   -0.0000    2.1975 S   0  0  0  0  0  0  0  0  0  0  0  0
   -0.9316    0.0706    3.8767 C   0  0  0  0  0  0  0  0  0  0  0  0
   -0.1498   -0.9416    4.3903 C   0  0  0  0  0  0  0  0  0  0  0  0
   -1.3685    1.1252    4.6770 C   0  0  0  0  0  0  0  0  0  0  0  0
    0.2701   -0.8665    5.7092 C   0  0  0  0  0  0  0  0  0  0  0  0
   -0.9549    1.1926    5.9817 C   0  0  0  0  0  0  0  0  0  0  0  0
   -0.1346    0.1786    6.5249 C   0  0  0  0  0  0  0  0  0  0  0  0
    3.3634   -0.0475   -0.6682 O   0  0  0  0  0  0  0  0  0  0  0  0
    3.3629   -0.0955   -2.0856 C   0  0  0  0  0  0  0  0  0  0  0  0
    3.0589    1.2728   -2.6936 C   0  0  0  0  0  0  0  0  0  0  0  0
    3.1236    1.1796   -4.2085 C   0  0  0  0  0  0  0  0  0  0  0  0
    2.7756    2.4741   -4.6465 O   0  0  0  0  0  0  0  0  0  0  0  0
    2.8523    2.5298   -6.0374 C   0  0  0  0  0  0  0  0  0  0  0  0
  2  1  2  0
  3  2  1  0
  4  1  1  0
  5  4  2  0
  6  5  1  0
  6  3  2  0
  7  2  1  0
  8  7  1  0
  9  8  2  0
 10  8  1  0
 11  9  1  0
 12 10  2  0
 13 12  1  0
 13 11  2  0
 14  5  1  0
 15 14  1  0
 16 15  1  0
 17 16  1  0
 18 17  1  0
 19 18  1  0
M  END
>  <SMILES>  (42) 
COCCCOc1cnc(Sc2ccccc2)cn1

>  <scaffold>  (42) 
pyrazine

$$$$

     RDKit          3D

 33 35  0  0  0  0  0  0  0  0999 V2000
   -0.0000    0.0000   -0.0000 C   0  0  0  0  0  0  0  0  0  0  0  0
   -0.0000   -0.0000    1.4183 C   0  0  0  0  0  0  0  0  0  0  0  0
    1.1636    0.0000    2.0816 N   0  0  0  0  0  0  0  0  0  0  0  0
    1.0951   -0.1079   -0.7091 N   0  0  0  0  0  0  0  0  0  0  0  0
    2.2404   -0.1641   -0.0470 C   0  0  0  0  0  0  0  0  0  0  0  0
    2.3160   -0.0549    1.3328 C   0  0  0  0  0  0  0  0  0  0  0  0
   -1.1258   -0.0000    2.1437 N   0  0  0  0  0  0  0  0  0  0  0  0
   -1.1832   -0.2140    3.5779 C   0  0  0  0  0  0  0  0  0  0  0  0
   -1.3544   -1.6649    3.8864 C   0  0  0  0  0  0  0  0  0  0  0  0
   -0.4577   -2.6908    3.8841 C   0  0  0  0  0  0  0  0  0  0  0  0
   -2.5990   -2.1301    4.1080 O   0  0  0  0  0  0  0  0  0  0  0  0
   -1.1582   -3.8640    4.1982 C   0  0  0  0  0  0  0  0  0  0  0  0
   -2.4899   -3.4653    4.3095 C   0  0  0  0  0  0  0  0  0  0  0  0
   -3.7116   -4.2273    4.6356 C   0  0  0  0  0  0  0  0  0  0  0  0
   -3.6640   -5.4327    4.7809 O   0  0  0  0  0  0  0  0  0  0  0  0
   -4.8413   -3.5039    4.7578 N   0  0  0  0  0  0  0  0  0  0  0  0
   -6.1523   -3.9825    5.1238 C   0  0  0  0  0  0  0  0  0  0  0  0
   -6.8489   -3.1758    6.1697 C   0  0  0  0  0  0  0  0  0  0  0  0
   -7.8161   -2.2073    6.0088 C   0  0  0  0  0  0  0  0  0  0  0  0
   -6.5400   -3.1471    7.5453 C   0  0  0  0  0  0  0  0  0  0  0  0
   -8.1194   -1.7090    7.2230 N   0  0  0  0  0  0  0  0  0  0  0  0
   -7.3349   -2.2832    8.1412 N   0  0  0  0  0  0  0  0  0  0  0  0
   -9.0995   -0.7308    7.5651 C   0  0  0  0  0  0  0  0  0  0  0  0
  -10.4930   -1.3503    7.4713 C   0  0  0  0  0  0  0  0  0  0  0  0
  -10.7070   -2.4753    8.4827 C   0  0  0  0  0  0  0  0  0  0  0  0
  -12.1301   -3.0228    8.3848 C   0  0  0  0  0  0  0  0  0  0  0  0
  -12.4126   -4.1154    9.4148 C   0  0  0  0  0  0  0  0  0  0  0  0
  -13.8696   -4.5922    9.3105 C   0  0  0  0  0  0  0  0  0  0  0  0
  -14.2189   -5.6484   10.3578 C   0  0  0  0  0  0  0  0  0  0  0  0
  -15.6894   -6.0480   10.2467 C   0  0  0  0  0  0  0  0  0  0  0  0
  -16.1036   -7.0642   11.3097 C   0  0  0  0  0  0  0  0  0  0  0  0
  -17.5918   -7.3884   11.1896 C   0  0  0  0  0  0  0  0  0  0  0  0
  -17.9420   -8.4457   12.2355 C   0  0  0  0  0  0  0  0  0  0  0  0
  2  1  2  0
  3  2  1  0
  4  1  1  0
  5  4  2  0
  6  5  1  0
  6  3  2  0
  7  2  1  0
  8  7  1  0
  9  8  1  0
 10  9  2  0
 11  9  1  0
 12 10  1  0
 13 12  2  0
 13 11  1  0
 14 13  1  0
 15 14  2  0
 16 14  1  0
 17 16  1  0
 18 17  1  0
 19 18  2  0
 20 18  1  0
 21 19  1  0
 22 21  1  0
 22 20  2  0
 23 21  1  0
 24 23  1  0
 25 24  1  0
 26 25  1  0
 27 26  1  0
 28 27  1  0
 29 28  1  0
 30 29  1  0
 31 30  1  0
 32 31  1  0
 33 32  1  0
M  END
>  <SMILES>  (43) 
CCCCCCCCCCCn1cc(CNC(=O)c2ccc(CNc3cnccn3)o2)cn1

>  <scaffold>  (43) 
pyrazine

$$$$

     RDKit          3D

 24 25  0  0  0  0  0  0  0  0999 V2000
   -0.0000    0.0000    0.0000 C   0  0  0  0  0  0  0  0  0  0  0  0
   -0.0000    0.0000    1.3941 C   0  0  0  0  0  0  0  0  0  0  0  0
    1.1569   -0.0000    2.0536 N   0  0  0  0  0  0  0  0  0  0  0  0
    1.1013    0.1085   -0.7131 N   0  0  0  0  0  0  0  0  0  0  0  0
    2.2532    0.1651   -0.0473 C   0  0  0  0  0  0  0  0  0  0  0  0
    2.3293    0.0552    1.3404 C   0  0  0  0  0  0  0  0  0  0  0  0
   -1.5076    0.0741    2.2656 S   0  0  0  0  0  0  0  0  0  0  0  0
   -0.8043    0.2502    3.9286 C   0  0  0  0  0  0  0  0  0  0  0  0
    0.0931    1.4743    4.1038 C   0  0  0  0  0  0  0  0  0  0  0  0
    0.9548    1.4486    4.9502 O   0  0  0  0  0  0  0  0  0  0  0  0
   -0.2506    2.5425    3.3308 N   0  0  0  0  0  0  0  0  0  0  0  0
    3.4423    0.3489   -0.9890 C   0  0  2  0  0  0  0  0  0  0  0  0
    0.3957    3.7990    3.2077 C   0  0  0  0  0  0  0  0  0  0  0  0
    0.0144    4.5697    2.3688 O   0  0  0  0  0  0  0  0  0  0  0  0
    1.4271    3.9594    4.0591 N   0  0  0  0  0  0  0  0  0  0  0  0
    4.6028    0.5320   -0.2386 O   0  0  0  0  0  0  0  0  0  0  0  0
    3.1987    1.5091   -1.9250 C   0  0  0  0  0  0  0  0  0  0  0  0
    3.1977    2.7900   -1.3950 C   0  0  0  0  0  0  0  0  0  0  0  0
    2.9639    1.3621   -3.2751 C   0  0  0  0  0  0  0  0  0  0  0  0
    2.9357    3.8569   -2.1877 C   0  0  0  0  0  0  0  0  0  0  0  0
    2.6980    2.4479   -4.0812 C   0  0  0  0  0  0  0  0  0  0  0  0
    2.6608    3.7287   -3.5403 C   0  0  0  0  0  0  0  0  0  0  0  0
    2.4399    4.7056   -4.4296 O   0  0  0  0  0  0  0  0  0  0  0  0
    2.3013    6.0297   -3.9178 C   0  0  0  0  0  0  0  0  0  0  0  0
  2  1  2  0
  3  2  1  0
  4  1  1  0
  5  4  2  0
  6  5  1  0
  6  3  2  0
  7  2  1  0
  8  7  1  0
  9  8  1  0
 10  9  2  0
 11  9  1  0
 12  5  1  0
 13 11  1  0
 14 13  2  0
 15 13  1  0
 12 16  1  1
 17 12  1  0
 18 17  2  0
 19 17  1  0
 20 18  1  0
 21 19  2  0
 22 21  1  0
 22 20  2  0
 23 22  1  0
 24 23  1  0
M  END
>  <SMILES>  (44) 
COc1ccc(C(O)c2cnc(SCC(=O)NC(N)=O)cn2)cc1

>  <scaffold>  (44) 
pyrazine

$$$$

     RDKit          3D

 25 27  0  0  0  0  0  0  0  0999 V2000
   -0.0000    0.0000    0.0000 C   0  0  0  0  0  0  0  0  0  0  0  0
    0.0000   -0.0000    1.3862 C   0  0  0  0  0  0  0  0  0  0  0  0
    1.1459    0.0000    2.0646 N   0  0  0  0  0  0  0  0  0  0  0  0
    1.1130   -0.0000   -0.7172 N   0  0  0  0  0  0  0  0  0  0  0  0
    2.2324   -0.0000    0.0041 C   0  0  0  0  0  0  0  0  0  0  0  0
    2.2324    0.0000    1.4143 C   0  0  0  0  0  0  0  0  0  0  0  0
    3.4164    0.0497   -0.6997 N   0  0  0  0  0  0  0  0  0  0  0  0
    3.7300   -0.0890   -2.0346 C   0  0  0  0  0  0  0  0  0  0  0  0
    4.7532    0.2396   -2.5401 O   0  0  0  0  0  0  0  0  0  0  0  0
    2.6765   -0.6477   -2.6442 O   0  0  0  0  0  0  0  0  0  0  0  0
    2.7581   -0.9463   -3.9954 C   0  0  0  0  0  0  0  0  0  0  0  0
    3.4472   -0.2258   -4.9584 C   0  0  0  0  0  0  0  0  0  0  0  0
    1.9690   -2.0299   -4.3784 C   0  0  0  0  0  0  0  0  0  0  0  0
    3.4094   -0.5960   -6.2855 C   0  0  0  0  0  0  0  0  0  0  0  0
    1.9248   -2.3918   -5.7157 C   0  0  0  0  0  0  0  0  0  0  0  0
    2.6159   -1.6791   -6.6604 C   0  0  0  0  0  0  0  0  0  0  0  0
    4.0912    0.0041   -7.3221 O   0  0  0  0  0  0  0  0  0  0  0  0
    4.8909    1.0855   -6.9867 C   0  0  0  0  0  0  0  0  0  0  0  0
    6.1342    0.7403   -6.2015 C   0  0  0  0  0  0  0  0  0  0  0  0
    6.6625   -0.5413   -6.1938 C   0  0  0  0  0  0  0  0  0  0  0  0
    6.7520    1.7047   -5.4207 C   0  0  0  0  0  0  0  0  0  0  0  0
    7.8267   -0.7975   -5.5020 C   0  0  0  0  0  0  0  0  0  0  0  0
    7.9218    1.4485   -4.7225 C   0  0  0  0  0  0  0  0  0  0  0  0
    8.4993    0.2333   -4.8645 C   0  0  0  0  0  0  0  0  0  0  0  0
    8.5991    2.6472   -3.7361 Cl  0  0  0  0  0  0  0  0  0  0  0  0
  2  1  2  0
  3  2  1  0
  4  1  1  0
  5  4  2  0
  6  5  1  0
  6  3  2  0
  7  5  1  0
  8  7  1  0
  9  8  2  0
 10  8  1  0
 11 10  1  0
 12 11  2  0
 13 11  1  0
 14 12  1  0
 15 13  2  0
 16 15  1  0
 16 14  2  0
 17 14  1  0
 18 17  1  0
 19 18  1  0
 20 19  2  0
 21 19  1  0
 22 20  1  0
 23 21  2  0
 24 23  1  0
 24 22  2  0
 25 23  1  0
M  END
>  <SMILES>  (45) 
O=C(Nc1cnccn1)Oc1cccc(OCc2cccc(Cl)c2)c1

>  <scaffold>  (45) 
pyrazine

$$$$

     RDKit          3D

 33 35  0  0  0  0  0  0  0  0999 V2000
   -0.0000   -0.0000    0.0000 N   0  0  0  0  0  0  0  0  0  0  0  0
   -0.0000    0.0000    1.2941 C   0  0  0  0  0  0  0  0  0  0  0  0
    1.1969    0.0000    2.0850 C   0  0  0  0  0  0  0  0  0  0  0  0
    1.1972   -0.0000   -0.6174 C   0  0  0  0  0  0  0  0  0  0  0  0
    2.3624    0.0000    0.1334 C   0  0  0  0  0  0  0  0  0  0  0  0
    2.3624   -0.0000    1.4728 N   0  0  0  0  0  0  0  0  0  0  0  0
   -1.5314    0.0000    2.0839 Cl  0  0  0  0  0  0  0  0  0  0  0  0
    1.1503   -0.0470   -1.9172 O   0  0  0  0  0  0  0  0  0  0  0  0
    3.3995   -0.0456    2.1954 O   0  0  0  0  0  0  0  0  0  0  0  0
    1.2444   -0.0475    3.3998 N   0  0  0  0  0  0  0  0  0  0  0  0
    0.1272    0.0272    4.3229 C   0  0  0  0  0  0  0  0  0  0  0  0
   -0.0790    1.4499    4.7576 C   0  0  0  0  0  0  0  0  0  0  0  0
   -1.0785    2.2163    4.2800 C   0  0  0  0  0  0  0  0  0  0  0  0
   -1.3514    3.6110    4.5732 C   0  0  0  0  0  0  0  0  0  0  0  0
   -0.6020    4.3424    5.4814 C   0  0  0  0  0  0  0  0  0  0  0  0
   -2.4117    4.2507    3.9328 C   0  0  0  0  0  0  0  0  0  0  0  0
   -0.8678    5.6784    5.6908 C   0  0  0  0  0  0  0  0  0  0  0  0
   -2.6798    5.5943    4.1435 C   0  0  0  0  0  0  0  0  0  0  0  0
   -1.8784    6.3465    5.0172 C   0  0  0  0  0  0  0  0  0  0  0  0
   -2.1215    8.0131    5.2722 Cl  0  0  0  0  0  0  0  0  0  0  0  0
   -3.7748    6.1747    3.5227 N   0  0  0  0  0  0  0  0  0  0  0  0
   -4.5879    7.4008    4.3619 S   0  0  0  0  0  6  0  0  0  0  0  0
   -4.4165    7.2391    5.7770 O   0  0  0  0  0  0  0  0  0  0  0  0
   -5.9219    7.3788    3.8126 O   0  0  0  0  0  0  0  0  0  0  0  0
   -3.7698    8.8862    3.8099 C   0  0  0  0  0  0  0  0  0  0  0  0
   -3.6088    9.1233    2.4537 C   0  0  0  0  0  0  0  0  0  0  0  0
   -3.4108    9.8245    4.7534 C   0  0  0  0  0  0  0  0  0  0  0  0
   -3.0112   10.3143    2.0717 C   0  0  0  0  0  0  0  0  0  0  0  0
   -2.8211   11.0094    4.3689 C   0  0  0  0  0  0  0  0  0  0  0  0
   -2.6336   11.2782    2.9935 C   0  0  0  0  0  0  0  0  0  0  0  0
   -2.1029   12.4345    2.5748 F   0  0  0  0  0  0  0  0  0  0  0  0
   -2.4648   12.0736    5.3410 C   0  0  0  0  0  0  0  0  0  0  0  0
   -3.5328   13.1604    5.4546 C   0  0  0  0  0  0  0  0  0  0  0  0
  2  1  2  0
  3  2  1  0
  4  1  1  0
  5  4  2  0
  6  5  1  0
  6  3  1  0
  7  2  1  0
  8  4  1  0
  9  6  1  0
 10  3  2  0
 11 10  1  0
 12 11  1  0
 13 12  2  0
 14 13  1  0
 15 14  2  0
 16 14  1  0
 17 15  1  0
 18 16  2  0
 19 18  1  0
 19 17  2  0
 20 19  1  0
 21 18  1  0
 22 21  1  0
 23 22  2  0
 24 22  2  0
 25 22  1  0
 26 25  2  0
 27 25  1  0
 28 26  1  0
 29 27  2  0
 30 28  2  0
 30 29  1  0
 31 30  1  0
 32 29  1  0
 33 32  1  0
M  CHG  2   9  -1  10   1
M  END
>  <SMILES>  (46) 
CCc1cc(S(=O)(=O)Nc2cc(C=CC[NH+]=c3c(Cl)nc(O)cn3[O-])ccc2Cl)ccc1F

>  <scaffold>  (46) 
pyrazine

$$$$

     RDKit          3D

 28 30  0  0  0  0  0  0  0  0999 V2000
   -0.0000   -0.0000   -0.0000 C   0  0  0  0  0  0  0  0  0  0  0  0
   -0.0000   -0.0000    1.3941 C   0  0  0  0  0  0  0  0  0  0  0  0
    1.1281   -0.0000    2.0873 N   0  0  0  0  0  0  0  0  0  0  0  0
    1.1130   -0.0000   -0.7172 N   0  0  0  0  0  0  0  0  0  0  0  0
    2.2324    0.0000    0.0041 C   0  0  0  0  0  0  0  0  0  0  0  0
    2.2324   -0.0000    1.3982 C   0  0  0  0  0  0  0  0  0  0  0  0
   -1.4651   -0.0000    2.3382 S   0  0  0  0  0  0  0  0  0  0  0  0
   -0.8387   -0.0706    4.0173 C   0  0  0  0  0  0  0  0  0  0  0  0
   -1.1483    0.9283    4.9150 C   0  0  0  0  0  0  0  0  0  0  0  0
    0.0178   -1.0959    4.3868 C   0  0  0  0  0  0  0  0  0  0  0  0
   -0.6444    0.9423    6.2148 C   0  0  0  0  0  0  0  0  0  0  0  0
    0.5121   -1.0811    5.6733 C   0  0  0  0  0  0  0  0  0  0  0  0
    0.2452   -0.0684    6.5761 C   0  0  0  0  0  0  0  0  0  0  0  0
   -0.9780    2.0037    6.9878 O   0  0  0  0  0  0  0  0  0  0  0  0
   -0.8865    1.9670    8.4027 C   0  0  0  0  0  0  0  0  0  0  0  0
   -1.8552    0.9360    8.9564 C   0  0  0  0  0  0  0  0  0  0  0  0
   -1.8344    0.8957   10.4923 C   0  0  1  0  0  0  0  0  0  0  0  0
   -2.9760    0.0122   10.9928 C   0  0  0  0  0  0  0  0  0  0  0  0
   -0.4929    0.4700   11.0165 C   0  0  0  0  0  0  0  0  0  0  0  0
    0.5297    1.2862   11.4240 C   0  0  0  0  0  0  0  0  0  0  0  0
   -0.0772   -1.2199   11.1118 S   0  0  0  0  0  0  0  0  0  0  0  0
    1.6634    0.5701   11.8052 C   0  0  0  0  0  0  0  0  0  0  0  0
    1.4972   -0.8300   11.6933 C   0  0  0  0  0  0  0  0  0  0  0  0
    2.4893   -1.9030   11.9557 C   0  0  0  0  0  0  0  0  0  0  0  0
    3.0457   -2.5164   10.6718 C   0  0  0  0  0  0  0  0  0  0  0  0
    3.6527   -1.8791    9.8440 O   0  0  0  0  0  0  0  0  0  0  0  0
    2.7512   -3.7893   10.5917 O   0  0  0  0  0  0  0  0  0  0  0  0
    3.2406   -4.5679    9.4692 C   0  0  0  0  0  0  0  0  0  0  0  0
  2  1  2  0
  3  2  1  0
  4  1  1  0
  5  4  2  0
  6  5  1  0
  6  3  2  0
  7  2  1  0
  8  7  1  0
  9  8  2  0
 10  8  1  0
 11  9  1  0
 12 10  2  0
 13 12  1  0
 13 11  2  0
 14 11  1  0
 15 14  1  0
 16 15  1  0
 17 16  1  0
 17 18  1  6
 19 17  1  0
 20 19  2  0
 21 19  1  0
 22 20  1  0
 23 21  1  0
 23 22  2  0
 24 23  1  0
 25 24  1  0
 26 25  2  0
 27 25  1  0
 28 27  1  0
M  END
>  <SMILES>  (47) 
COC(=O)Cc1ccc(C(C)CCOc2cccc(Sc3cnccn3)c2)s1

>  <scaffold>  (47) 
pyrazine

$$$$

     RDKit          3D

 19 20  0  0  0  0  0  0  0  0999 V2000
   -0.0000   -0.0000   -0.0000 C   0  0  0  0  0  0  0  0  0  0  0  0
    0.0000   -0.0000    1.3782 C   0  0  0  0  0  0  0  0  0  0  0  0
    1.1459    0.0000    2.0567 N   0  0  0  0  0  0  0  0  0  0  0  0
    1.1130   -0.0000   -0.7172 N   0  0  0  0  0  0  0  0  0  0  0  0
    2.2715    0.0569   -0.0475 C   0  0  0  0  0  0  0  0  0  0  0  0
    2.2708    0.1135    1.3615 C   0  0  0  0  0  0  0  0  0  0  0  0
    3.3875    0.1037   -0.8279 N   0  0  0  0  0  0  0  0  0  0  0  0
    4.6076    0.2154   -0.2680 N   0  0  0  0  0  0  0  0  0  0  0  0
    5.6245    0.3017   -1.0395 C   0  0  0  0  0  0  0  0  0  0  0  0
    6.9169    0.3624   -0.2939 C   0  0  0  0  0  0  0  0  0  0  0  0
    5.6171    0.3590   -2.5146 C   0  0  0  0  0  0  0  0  0  0  0  0
    6.3567   -0.5412   -3.2656 C   0  0  0  0  0  0  0  0  0  0  0  0
    4.8337    1.3210   -3.1506 C   0  0  0  0  0  0  0  0  0  0  0  0
    6.3575   -0.4193   -4.6227 C   0  0  0  0  0  0  0  0  0  0  0  0
    4.8331    1.4445   -4.5233 C   0  0  0  0  0  0  0  0  0  0  0  0
    5.6538    0.5647   -5.3158 C   0  0  0  0  0  0  0  0  0  0  0  0
    5.7741    0.6164   -6.6642 O   0  0  0  0  0  0  0  0  0  0  0  0
    5.0470    1.5561   -7.4086 C   0  0  0  0  0  0  0  0  0  0  0  0
    3.5324    1.3607   -7.3594 C   0  0  0  0  0  0  0  0  0  0  0  0
  2  1  2  0
  3  2  1  0
  4  1  1  0
  5  4  2  0
  6  5  1  0
  6  3  2  0
  7  5  1  0
  8  7  1  0
  9  8  2  0
 10  9  1  0
 11  9  1  0
 12 11  2  0
 13 11  1  0
 14 12  1  0
 15 13  2  0
 16 15  1  0
 16 14  2  0
 17 16  1  0
 18 17  1  0
 19 18  1  0
M  END
>  <SMILES>  (48) 
CCOc1ccc(C(C)=NNc2cnccn2)cc1

>  <scaffold>  (48) 
pyrazine

$$$$

     RDKit          3D

 24 26  0  0  0  0  0  0  0  0999 V2000
    0.0000   -0.0000   -0.0000 C   0  0  0  0  0  0  0  0  0  0  0  0
   -0.0000   -0.0000    1.3941 C   0  0  0  0  0  0  0  0  0  0  0  0
    1.1525    0.0000    2.0765 N   0  0  0  0  0  0  0  0  0  0  0  0
    1.1130   -0.0000   -0.7172 N   0  0  0  0  0  0  0  0  0  0  0  0
    2.2324   -0.0000    0.0041 C   0  0  0  0  0  0  0  0  0  0  0  0
    2.2324   -0.0000    1.4062 C   0  0  0  0  0  0  0  0  0  0  0  0
    3.3896   -0.0486   -0.6837 O   0  0  0  0  0  0  0  0  0  0  0  0
   -1.4319   -0.0000    2.3168 Cl  0  0  0  0  0  0  0  0  0  0  0  0
    3.4271    0.3059   -2.0069 C   0  0  0  0  0  0  0  0  0  0  0  0
    2.8294    1.4977   -2.4142 C   0  0  0  0  0  0  0  0  0  0  0  0
    4.1165   -0.4903   -2.9082 C   0  0  0  0  0  0  0  0  0  0  0  0
    2.9357    1.8382   -3.7537 C   0  0  0  0  0  0  0  0  0  0  0  0
    4.2225   -0.1499   -4.2314 C   0  0  0  0  0  0  0  0  0  0  0  0
    3.6606    1.0674   -4.6736 C   0  0  0  0  0  0  0  0  0  0  0  0
    3.7790    1.4723   -5.9857 O   0  0  0  0  0  0  0  0  0  0  0  0
    2.2990    2.9789   -4.1125 F   0  0  0  0  0  0  0  0  0  0  0  0
    3.7446    0.5872   -7.0108 C   0  0  0  0  0  0  0  0  0  0  0  0
    3.1094   -0.6489   -6.9004 C   0  0  0  0  0  0  0  0  0  0  0  0
    4.3447    0.9716   -8.2089 C   0  0  0  0  0  0  0  0  0  0  0  0
    3.0963   -1.4445   -8.0354 C   0  0  0  0  0  0  0  0  0  0  0  0
    4.3277    0.1765   -9.3442 C   0  0  0  0  0  0  0  0  0  0  0  0
    3.6196   -1.0443   -9.2460 C   0  0  0  0  0  0  0  0  0  0  0  0
    5.1443    0.6805  -10.7873 Cl  0  0  0  0  0  0  0  0  0  0  0  0
    2.5328   -2.6743   -7.9611 O   0  0  0  0  0  0  0  0  0  0  0  0
  2  1  2  0
  3  2  1  0
  4  1  1  0
  5  4  2  0
  6  5  1  0
  6  3  2  0
  7  5  1  0
  8  2  1  0
  9  7  1  0
 10  9  2  0
 11  9  1  0
 12 10  1  0
 13 11  2  0
 14 13  1  0
 14 12  2  0
 15 14  1  0
 16 12  1  0
 17 15  1  0
 18 17  2  0
 19 17  1  0
 20 18  1  0
 21 19  2  0
 22 21  1  0
 22 20  2  0
 23 21  1  0
 24 20  1  0
M  END
>  <SMILES>  (49) 
Oc1cc(Cl)cc(Oc2ccc(Oc3cnc(Cl)cn3)cc2F)c1

>  <scaffold>  (49) 
pyrazine

$$$$

     RDKit          3D

 38 40  0  0  0  0  0  0  0  0999 V2000
    0.0000    0.0000   -0.0000 C   0  0  0  0  0  0  0  0  0  0  0  0
   -0.0000    0.0000    1.3782 C   0  0  0  0  0  0  0  0  0  0  0  0
    1.1459   -0.0000    2.0567 N   0  0  0  0  0  0  0  0  0  0  0  0
    1.1194    0.0000   -0.7213 N   0  0  0  0  0  0  0  0  0  0  0  0
    2.2324    0.0000   -0.0041 C   0  0  0  0  0  0  0  0  0  0  0  0
    2.2324   -0.0000    1.4061 C   0  0  0  0  0  0  0  0  0  0  0  0
    3.4072    0.0516   -0.6128 O   0  0  0  0  0  0  0  0  0  0  0  0
    3.6065    0.0464   -2.0007 C   0  0  0  0  0  0  0  0  0  0  0  0
    4.7071    0.7168   -2.5325 C   0  0  0  0  0  0  0  0  0  0  0  0
    2.7375   -0.6354   -2.8512 C   0  0  1  0  0  0  0  0  0  0  0  0
    5.0423    0.7389   -3.8855 C   0  0  0  0  0  0  0  0  0  0  0  0
    3.0760   -0.6103   -4.2199 C   0  0  0  0  0  0  0  0  0  0  0  0
    4.1505    0.0097   -4.6707 C   0  0  0  0  0  0  0  0  0  0  0  0
    6.0388    1.3867   -4.5194 O   0  0  0  0  0  0  0  0  0  0  0  0
    6.9129    2.1141   -3.6856 C   0  0  0  0  0  0  0  0  0  0  0  0
    1.9989   -1.3887   -5.3322 Cl  0  0  0  0  0  0  0  0  0  0  0  0
    1.6689   -1.3184   -2.3748 O   0  0  0  0  0  0  0  0  0  0  0  0
    1.1970   -2.5219   -2.9384 C   0  0  0  0  0  0  0  0  0  0  0  0
    2.3220   -3.5548   -2.9818 C   0  0  0  0  0  0  0  0  0  0  0  0
    2.0422   -4.7153   -2.9428 O   0  0  0  0  0  0  0  0  0  0  0  0
    3.5341   -3.0112   -3.0749 O   0  0  0  0  0  0  0  0  0  0  0  0
    4.7298   -3.7280   -3.0763 C   0  0  0  0  0  0  0  0  0  0  0  0
    4.8937   -4.7931   -2.2044 C   0  0  0  0  0  0  0  0  0  0  0  0
    5.7353   -3.3763   -3.9510 C   0  0  0  0  0  0  0  0  0  0  0  0
    6.1174   -5.4443   -2.2077 C   0  0  0  0  0  0  0  0  0  0  0  0
    6.9589   -4.0275   -3.9547 C   0  0  0  0  0  0  0  0  0  0  0  0
    7.1818   -5.0259   -3.0048 C   0  0  0  0  0  0  0  0  0  0  0  0
    8.3368   -5.7910   -2.9598 O   0  0  0  0  0  0  0  0  0  0  0  0
    9.5459   -5.3702   -3.5119 C   0  0  0  0  0  0  0  0  0  0  0  0
   10.1580   -4.1684   -2.7573 C   0  0  0  0  0  0  0  0  0  0  0  0
   11.4298   -3.7776   -3.4907 C   0  0  0  0  0  0  0  0  0  0  0  0
   12.5241   -4.0566   -3.1233 O   0  0  0  0  0  0  0  0  0  0  0  0
   11.2256   -3.1681   -4.6310 O   0  0  0  0  0  0  0  0  0  0  0  0
   12.3464   -2.7970   -5.4460 C   0  0  0  0  0  0  0  0  0  0  0  0
   11.9701   -2.0414   -6.7195 C   0  0  0  0  0  0  0  0  0  0  0  0
   13.1240   -1.6710   -7.6499 C   0  0  0  0  0  0  0  0  0  0  0  0
   12.6865   -0.9616   -8.9409 C   0  0  0  0  0  0  0  0  0  0  0  0
   13.8795   -0.5648   -9.8092 C   0  0  0  0  0  0  0  0  0  0  0  0
  2  1  1  0
  3  2  1  0
  4  1  2  0
  5  4  1  0
  6  5  1  0
  6  3  2  0
  7  5  1  0
  8  7  1  0
  9  8  2  0
 10  8  1  0
 11  9  1  0
 12 10  1  0
 13 12  2  0
 13 11  1  0
 14 11  2  0
 15 14  1  0
 16 12  1  0
 10 17  1  6
 18 17  1  0
 19 18  1  0
 20 19  2  0
 21 19  1  0
 22 21  1  0
 23 22  2  0
 24 22  1  0
 25 23  1  0
 26 24  2  0
 27 25  2  0
 27 26  1  0
 28 27  1  0
 29 28  1  0
 30 29  1  0
 31 30  1  0
 32 31  2  0
 33 31  1  0
 34 33  1  0
 35 34  1  0
 36 35  1  0
 37 36  1  0
 38 37  1  0
M  CHG  2   5  -1  14   1
M  END
>  <SMILES>  (50) 
CCCCCOC(=O)CCOc1ccc(OC(=O)COC2C(Cl)=CC(=[O+]C)C=C2O[C-]2C=NCC=N2)cc1

>  <scaffold>  (50) 
pyrazine

$$$$
