
     RDKit          3D

 27 29  0  0  0  0  0  0  0  0999 V2000
    0.0000    0.0000    0.0000 N   0  0  0  0  0  0  0  0  0  0  0  0
    0.0000    0.0000    1.4021 C   0  0  0  0  0  0  0  0  0  0  0  0
    1.1294    0.0000    2.1220 C   0  0  0  0  0  0  0  0  0  0  0  0
    1.1818   -0.0581   -0.5423 C   0  0  0  0  0  0  0  0  0  0  0  0
    2.4030   -0.0581    0.1628 C   0  0  0  0  0  0  0  0  0  0  0  0
    2.3413    0.0092    1.5459 C   0  0  0  0  0  0  0  0  0  0  0  0
    1.3798   -0.1217   -1.8889 O   0  0  0  0  0  0  0  0  0  0  0  0
    3.5191   -0.1962   -0.8456 C   0  0  0  0  0  0  0  0  0  0  0  0
    4.4859    0.9982   -0.8555 C   0  0  0  0  0  0  0  0  0  0  0  0
    2.7306   -0.4292   -2.0448 C   0  0  0  0  0  0  0  0  0  0  0  0
    5.3136    1.0456   -1.8878 F   0  0  0  0  0  0  0  0  0  0  0  0
   -1.3843    0.0000    1.9621 C   0  0  0  0  0  0  0  0  0  0  0  0
    3.3905    0.0728    2.3760 N   0  0  0  0  0  0  0  0  0  0  0  0
    2.9681   -1.7942   -2.0038 O   0  0  0  0  0  0  0  0  0  0  0  0
    2.7243   -2.5266   -3.2033 C   0  0  0  0  0  0  0  0  0  0  0  0
    4.3809   -1.2631   -0.5957 O   0  0  0  0  0  0  0  0  0  0  0  0
    3.7949    2.1277   -0.8658 F   0  0  0  0  0  0  0  0  0  0  0  0
    5.3044    0.9680    0.2237 F   0  0  0  0  0  0  0  0  0  0  0  0
    1.2893   -2.4718   -3.6430 C   0  0  0  0  0  0  0  0  0  0  0  0
    0.8944   -1.6972   -4.7226 C   0  0  0  0  0  0  0  0  0  0  0  0
    0.2907   -3.1123   -2.9108 C   0  0  0  0  0  0  0  0  0  0  0  0
   -0.4418   -1.5814   -5.0033 C   0  0  0  0  0  0  0  0  0  0  0  0
   -1.0586   -2.9838   -3.2011 C   0  0  0  0  0  0  0  0  0  0  0  0
   -1.4398   -2.1987   -4.2656 C   0  0  0  0  0  0  0  0  0  0  0  0
   -1.0480   -0.4874   -6.4182 Br  0  0  0  0  0  0  0  0  0  0  0  0
   -2.0532   -3.6203   -2.5530 O   0  0  0  0  0  0  0  0  0  0  0  0
   -2.7724   -2.0741   -4.4757 O   0  0  0  0  0  0  0  0  0  0  0  0
  1  2  2  0
  1  4  1  0
  2  3  1  0
  2 12  1  0
  3  6  2  0
  4  5  2  0
  4  7  1  0
  5  6  1  0
  5  8  1  0
  6 13  1  0
  7 10  1  0
  8  9  1  0
  8 10  1  0
  8 16  1  0
  9 11  1  0
  9 17  1  0
  9 18  1  0
 10 14  1  0
 14 15  1  0
 15 19  1  0
 19 20  2  0
 19 21  1  0
 20 22  1  0
 21 23  2  0
 22 24  2  0
 22 25  1  0
 23 24  1  0
 23 26  1  0
 24 27  1  0
M  END

$$$$

     RDKit          3D

 30 31  0  0  0  0  0  0  0  0999 V2000
    0.0000    0.0000    0.0000 C   0  0  0  0  0  0  0  0  0  0  0  0
    0.0000    0.0000    1.3625 C   0  0  0  0  0  0  0  0  0  0  0  0
    1.1860    0.0000    2.0647 C   0  0  0  0  0  0  0  0  0  0  0  0
    1.2971    0.0000   -0.6689 C   0  0  0  0  0  0  0  0  0  0  0  0
    2.3787   -0.0531   -0.0437 N   0  0  0  0  0  0  0  0  0  0  0  0
    2.3780   -0.1182    1.4059 C   0  0  0  0  0  0  0  0  0  0  0  0
    1.1315   -0.0545    3.5732 C   0  0  0  0  0  0  0  0  0  0  0  0
    1.8418   -1.0415    4.1160 F   0  0  0  0  0  0  0  0  0  0  0  0
    1.2437    0.1290   -2.0322 O   0  0  0  0  0  0  0  0  0  0  0  0
   -1.2481    0.0000   -0.8042 C   0  0  0  0  0  0  0  0  0  0  0  0
   -1.2959   -0.4244   -1.9418 O   0  0  0  0  0  0  0  0  0  0  0  0
   -2.2185    0.5187   -0.0952 O   0  0  0  0  0  0  0  0  0  0  0  0
    3.7338   -0.3367    1.9000 C   0  0  0  0  0  0  0  0  0  0  0  0
    4.8779   -0.2433    1.1660 C   0  0  0  0  0  0  0  0  0  0  0  0
    3.9395   -0.6717    3.2046 N   0  0  0  0  0  0  0  0  0  0  0  0
    6.2732   -0.6445    2.1122 S   0  0  0  0  0  0  0  0  0  0  0  0
    5.1651   -0.8704    3.4460 C   0  0  0  0  0  0  0  0  0  0  0  0
    2.3263   -0.3218   -2.8297 C   0  0  0  0  0  0  0  0  0  0  0  0
    5.6310   -1.1608    4.6677 N   0  0  0  0  0  0  0  0  0  0  0  0
    2.1748   -1.8105   -3.0919 C   0  0  0  0  0  0  0  0  0  0  0  0
   -3.4900    0.5246   -0.7417 C   0  0  0  0  0  0  0  0  0  0  0  0
   -4.2763   -0.6933   -0.3493 C   0  0  0  0  0  0  0  0  0  0  0  0
   -3.9683   -1.6702    0.5137 C   0  0  0  0  0  0  0  0  0  0  0  0
    1.5215    1.1158    4.1333 F   0  0  0  0  0  0  0  0  0  0  0  0
   -4.6822   -2.9150    0.8948 C   0  0  0  0  0  0  0  0  0  0  0  0
   -4.2804   -3.8569    1.5490 O   0  0  0  0  0  0  0  0  0  0  0  0
   -6.0548   -2.8806    0.2448 C   0  0  0  0  0  0  0  0  0  0  0  0
   -2.7592   -1.6015    1.1717 O   0  0  0  0  0  0  0  0  0  0  0  0
   -6.1386   -2.3523   -1.2147 C   0  0  0  0  0  0  0  0  0  0  0  0
   -1.7090   -0.8717    0.6369 C   0  0  0  0  0  0  0  0  0  0  0  0
  1  2  2  0
  1  4  1  0
  1 10  1  0
  2  3  1  0
  3  6  2  0
  3  7  1  0
  4  5  2  0
  4  9  1  0
  5  6  1  0
  6 13  1  0
  7  8  1  0
  7 24  1  0
  9 18  1  0
 10 11  2  0
 10 12  1  0
 12 21  1  0
 13 14  2  0
 13 15  1  0
 14 16  1  0
 15 17  2  0
 16 17  1  0
 17 19  1  0
 18 20  1  0
 21 22  1  0
 22 23  2  3
 23 25  1  0
 23 28  1  0
 25 26  2  0
 25 27  1  0
 27 29  1  0
 28 30  1  0
M  END

$$$$

     RDKit          3D

 31 35  0  0  0  0  0  0  0  0999 V2000
    0.0000    0.0000    0.0000 C   0  0  0  0  0  0  0  0  0  0  0  0
    0.0000    0.0000    1.4102 C   0  0  0  0  0  0  0  0  0  0  0  0
    1.2392    0.0000    2.1166 C   0  0  0  0  0  0  0  0  0  0  0  0
    1.2041    0.0000   -0.6209 C   0  0  0  0  0  0  0  0  0  0  0  0
    2.3827   -0.0579    0.0603 N   0  0  0  0  0  0  0  0  0  0  0  0
    2.3820    0.0005    1.4373 C   0  0  0  0  0  0  0  0  0  0  0  0
   -0.9558   -0.0537    2.4787 C   0  0  0  0  0  0  0  0  0  0  0  0
   -0.3608   -0.0722    3.6699 N   0  0  0  0  0  0  0  0  0  0  0  0
    0.9425    0.0163    3.4536 N   0  0  0  0  0  0  0  0  0  0  0  0
   -2.4072   -0.2069    2.4787 C   0  0  0  0  0  0  0  0  0  0  0  0
   -3.1525    0.1177    1.3657 C   0  0  0  0  0  0  0  0  0  0  0  0
   -3.0237   -0.7235    3.6468 C   0  0  0  0  0  0  0  0  0  0  0  0
   -4.5703   -0.0986    1.3968 C   0  0  0  0  0  0  0  0  0  0  0  0
   -4.3539   -0.9596    3.7469 C   0  0  0  0  0  0  0  0  0  0  0  0
   -5.2610    0.1349    0.4160 O   0  0  0  0  0  0  0  0  0  0  0  0
   -5.2102   -0.5769    2.5589 N   0  0  0  0  0  0  0  0  0  0  0  0
   -6.6471   -0.8301    2.5241 C   0  0  0  0  0  0  0  0  0  0  0  0
    3.6115    0.0059   -0.7245 C   0  0  0  0  0  0  0  0  0  0  0  0
   -2.7595    0.6478    0.2001 O   0  0  0  0  0  0  0  0  0  0  0  0
    3.6986    0.0728    2.1198 C   0  0  0  0  0  0  0  0  0  0  0  0
   -7.0239   -2.2982    2.7166 C   0  0  0  0  0  0  0  0  0  0  0  0
    4.3166    1.3152   -0.5888 C   0  0  0  0  0  0  0  0  0  0  0  0
    4.0208    2.5603   -1.0563 C   0  0  0  0  0  0  0  0  0  0  0  0
    5.4253    1.3700    0.2013 O   0  0  0  0  0  0  0  0  0  0  0  0
    5.0094    3.4619   -0.5858 C   0  0  0  0  0  0  0  0  0  0  0  0
    5.8355    2.6450    0.1998 C   0  0  0  0  0  0  0  0  0  0  0  0
   -7.4052    0.0013    3.5059 C   0  0  0  0  0  0  0  0  0  0  0  0
   -7.4165    1.3677    3.6091 C   0  0  0  0  0  0  0  0  0  0  0  0
   -8.2566   -0.3924    4.5589 C   0  0  0  0  0  0  0  0  0  0  0  0
   -8.2665    1.6781    4.5862 O   0  0  0  0  0  0  0  0  0  0  0  0
   -8.7821    0.6179    5.1736 N   0  0  0  0  0  0  0  0  0  0  0  0
  1  2  1  0
  1  4  2  0
  2  3  1  0
  2  7  2  0
  3  6  2  0
  3  9  1  0
  4  5  1  0
  5  6  1  0
  5 18  1  0
  6 20  1  0
  7  8  1  0
  7 10  1  0
  8  9  2  0
 10 11  2  0
 10 12  1  0
 11 13  1  0
 11 19  1  0
 12 14  2  0
 13 15  2  0
 13 16  1  0
 14 16  1  0
 16 17  1  0
 17 21  1  0
 17 27  1  0
 18 22  1  0
 22 23  2  0
 22 24  1  0
 23 25  1  0
 24 26  1  0
 25 26  2  0
 27 28  2  0
 27 29  1  0
 28 30  1  0
 29 31  2  0
 30 31  1  0
M  END

$$$$

     RDKit          3D

 30 33  0  0  0  0  0  0  0  0999 V2000
    0.0000    0.0000    0.0000 C   0  0  0  0  0  0  0  0  0  0  0  0
    0.0000    0.0000    1.4595 C   0  0  0  0  0  0  0  0  0  0  0  0
    1.2539    0.0000    2.0688 C   0  0  0  0  0  0  0  0  0  0  0  0
    1.1453   -0.0563   -0.6620 C   0  0  0  0  0  0  0  0  0  0  0  0
    2.3618   -0.1160   -0.0340 N   0  0  0  0  0  0  0  0  0  0  0  0
    2.4257   -0.1192    1.3116 C   0  0  0  0  0  0  0  0  0  0  0  0
   -1.2059    0.0000    2.2365 C   0  0  0  0  0  0  0  0  0  0  0  0
   -2.3236    0.0000    1.6601 O   0  0  0  0  0  0  0  0  0  0  0  0
   -1.0700    0.0563    3.6719 C   0  0  0  0  0  0  0  0  0  0  0  0
   -2.1821    0.1072    4.4440 C   0  0  0  0  0  0  0  0  0  0  0  0
    3.8002   -0.1318    1.9582 C   0  0  0  0  0  0  0  0  0  0  0  0
   -2.1831    0.1097    5.7757 N   0  0  0  0  0  0  0  0  0  0  0  0
    4.1849    1.2830    2.3213 C   0  0  0  0  0  0  0  0  0  0  0  0
    4.3327    2.2662    1.3441 C   0  0  0  0  0  0  0  0  0  0  0  0
    4.4652    1.6370    3.6318 C   0  0  0  0  0  0  0  0  0  0  0  0
    4.6384    3.5620    1.7299 C   0  0  0  0  0  0  0  0  0  0  0  0
    4.7689    2.9736    3.9273 C   0  0  0  0  0  0  0  0  0  0  0  0
    4.8016    3.9306    2.9911 N   0  0  0  0  0  0  0  0  0  0  0  0
    5.1239    3.3883    5.2898 C   0  0  0  0  0  0  0  0  0  0  0  0
    5.4836    2.4729    6.2891 C   0  0  0  0  0  0  0  0  0  0  0  0
    5.0710    4.7644    5.5936 C   0  0  0  0  0  0  0  0  0  0  0  0
    5.7598    2.9030    7.5605 C   0  0  0  0  0  0  0  0  0  0  0  0
    5.3716    5.1088    6.9276 C   0  0  0  0  0  0  0  0  0  0  0  0
    5.6980    4.2566    7.9211 C   0  0  0  0  0  0  0  0  0  0  0  0
    6.1813    2.2336    8.6891 O   0  0  0  0  0  0  0  0  0  0  0  0
   -3.3735    0.2986    6.5384 C   0  0  0  0  0  0  0  0  0  0  0  0
    4.7181    5.7323    4.7257 O   0  0  0  0  0  0  0  0  0  0  0  0
   -0.9842    0.0577    6.5618 C   0  0  0  0  0  0  0  0  0  0  0  0
   -3.4092   -0.2947    7.9083 C   0  0  0  0  0  0  0  0  0  0  0  0
   -4.2709   -0.9171    6.8352 C   0  0  0  0  0  0  0  0  0  0  0  0
  1  2  2  0
  1  4  1  0
  2  3  1  0
  2  7  1  0
  3  6  2  0
  4  5  2  0
  5  6  1  0
  6 11  1  0
  7  8  2  0
  7  9  1  0
  9 10  2  3
 10 12  1  0
 11 13  1  0
 12 26  1  0
 12 28  1  0
 13 14  2  0
 13 15  1  0
 14 16  1  0
 15 17  2  0
 16 18  2  0
 17 18  1  0
 17 19  1  0
 19 20  2  0
 19 21  1  0
 20 22  1  0
 21 23  2  0
 21 27  1  0
 22 24  2  0
 22 25  1  0
 23 24  1  0
 26 29  1  0
 26 30  1  0
 29 30  1  0
M  END

$$$$

     RDKit          3D

 21 22  0  0  0  0  0  0  0  0999 V2000
    0.0000    0.0000    0.0000 C   0  0  0  0  0  0  0  0  0  0  0  0
    0.0000    0.0000    1.4264 C   0  0  0  0  0  0  0  0  0  0  0  0
    1.1346    0.0000    2.1236 C   0  0  0  0  0  0  0  0  0  0  0  0
    1.2731   -0.0625   -0.5842 C   0  0  0  0  0  0  0  0  0  0  0  0
    2.4463   -0.0625    0.0932 N   0  0  0  0  0  0  0  0  0  0  0  0
    2.3877    0.0013    1.4068 C   0  0  0  0  0  0  0  0  0  0  0  0
   -1.2935    0.1274   -0.5258 C   0  0  0  0  0  0  0  0  0  0  0  0
   -2.3698    0.2871   -0.9105 N   0  0  0  0  0  0  0  0  0  0  0  0
    3.5320    0.1316    2.1204 N   0  0  0  0  0  0  0  0  0  0  0  0
    4.8931    0.3646    1.8770 C   0  0  0  0  0  0  0  0  0  0  0  0
    5.7639    0.7824    2.8823 C   0  0  0  0  0  0  0  0  0  0  0  0
    5.4380    0.2001    0.5868 C   0  0  0  0  0  0  0  0  0  0  0  0
    7.1224    0.9912    2.7807 C   0  0  0  0  0  0  0  0  0  0  0  0
    6.8215    0.4260    0.5568 C   0  0  0  0  0  0  0  0  0  0  0  0
    7.6627    0.7546    1.5351 C   0  0  0  0  0  0  0  0  0  0  0  0
    4.8962   -0.1626   -0.5656 O   0  0  0  0  0  0  0  0  0  0  0  0
    1.4741   -0.0191   -1.9155 N   0  0  0  0  0  0  0  0  0  0  0  0
    7.8624    1.4531    3.8275 F   0  0  0  0  0  0  0  0  0  0  0  0
    0.5194   -0.1764   -2.9747 C   0  0  0  0  0  0  0  0  0  0  0  0
    0.3024   -1.6591   -3.3150 C   0  0  0  0  0  0  0  0  0  0  0  0
   -0.8153   -1.7726   -4.3375 C   0  0  0  0  0  0  0  0  0  0  0  0
  1  2  2  0
  1  4  1  0
  1  7  1  0
  2  3  1  0
  3  6  2  0
  4  5  2  0
  4 17  1  0
  5  6  1  0
  6  9  1  0
  7  8  3  0
  9 10  1  0
 10 11  2  0
 10 12  1  0
 11 13  1  0
 12 14  2  0
 12 16  1  0
 13 15  2  0
 13 18  1  0
 14 15  1  0
 17 19  1  0
 19 20  1  0
 20 21  1  0
M  END

$$$$

     RDKit          3D

 31 32  0  0  0  0  0  0  0  0999 V2000
    0.0000    0.0000    0.0000 C   0  0  0  0  0  0  0  0  0  0  0  0
    0.0000    0.0000    1.4511 C   0  0  0  0  0  0  0  0  0  0  0  0
    1.1743    0.0000    2.1727 C   0  0  0  0  0  0  0  0  0  0  0  0
    1.2391    0.0000   -0.6390 C   0  0  0  0  0  0  0  0  0  0  0  0
    2.4109    0.0000    0.1162 N   0  0  0  0  0  0  0  0  0  0  0  0
    2.4109    0.0000    1.4029 C   0  0  0  0  0  0  0  0  0  0  0  0
    1.2982    0.0514    3.4824 O   0  0  0  0  0  0  0  0  0  0  0  0
    3.5343    0.1298    2.1907 N   0  0  0  0  0  0  0  0  0  0  0  0
    4.8216    0.2785    1.7956 N   0  0  0  0  0  0  0  0  0  0  0  0
    5.3542   -0.1998    0.7441 C   0  0  0  0  0  0  0  0  0  0  0  0
   -1.1768    0.0000   -0.6069 O   0  0  0  0  0  0  0  0  0  0  0  0
    4.7622   -1.0746   -0.2630 C   0  0  0  0  0  0  0  0  0  0  0  0
    4.9776   -0.9439   -1.6100 C   0  0  0  0  0  0  0  0  0  0  0  0
    4.0426   -2.2827   -0.0780 C   0  0  0  0  0  0  0  0  0  0  0  0
    4.2283   -1.8900   -2.2082 O   0  0  0  0  0  0  0  0  0  0  0  0
    3.6664   -2.6727   -1.3281 C   0  0  0  0  0  0  0  0  0  0  0  0
    0.0855    0.0510    4.2944 C   0  0  0  0  0  0  0  0  0  0  0  0
   -1.0652    0.2230    3.8172 N   0  0  0  0  0  0  0  0  0  0  0  0
    2.8489   -3.8259   -1.7235 C   0  0  0  0  0  0  0  0  0  0  0  0
    2.2863   -4.5560   -0.9424 O   0  0  0  0  0  0  0  0  0  0  0  0
    2.8091   -3.9860   -3.0449 O   0  0  0  0  0  0  0  0  0  0  0  0
   -1.2339    0.0000    2.2462 C   0  0  0  0  0  0  0  0  0  0  0  0
   -2.4148   -0.4226    2.0342 N   0  0  0  0  0  0  0  0  0  0  0  0
    5.7395    0.0703   -2.3979 C   0  0  0  0  0  0  0  0  0  0  0  0
    2.0002   -5.0424   -3.5589 C   0  0  0  0  0  0  0  0  0  0  0  0
    6.8888   -0.5999   -3.2017 C   0  0  0  0  0  0  0  0  0  0  0  0
    4.8133    0.8073   -3.3916 C   0  0  0  0  0  0  0  0  0  0  0  0
    7.0719    0.1208   -4.5363 C   0  0  0  0  0  0  0  0  0  0  0  0
    5.9749    1.2211   -4.5801 C   0  0  0  0  0  0  0  0  0  0  0  0
    2.7301   -6.3726   -3.4836 C   0  0  0  0  0  0  0  0  0  0  0  0
    6.5330    2.4513   -4.1755 O   0  0  0  0  0  0  0  0  0  0  0  0
  1  2  2  0
  1  4  1  0
  1 11  1  0
  2  3  1  0
  2 22  1  0
  3  6  2  0
  3  7  1  0
  4  5  2  0
  5  6  1  0
  6  8  1  0
  7 17  1  0
  8  9  1  0
  9 10  2  3
 10 12  1  0
 12 13  2  0
 12 14  1  0
 13 15  1  0
 13 24  1  0
 14 16  2  0
 15 16  1  0
 16 19  1  0
 17 18  2  0
 19 20  2  0
 19 21  1  0
 21 25  1  0
 22 23  2  0
 24 26  1  0
 24 27  1  0
 25 30  1  0
 26 28  1  0
 28 29  1  0
 29 31  1  0
M  END

$$$$

     RDKit          3D

 30 31  0  0  0  0  0  0  0  0999 V2000
    0.0000    0.0000    0.0000 C   0  0  0  0  0  0  0  0  0  0  0  0
    0.0000    0.0000    1.3862 C   0  0  0  0  0  0  0  0  0  0  0  0
    1.0590    0.0000    2.2186 N   0  0  0  0  0  0  0  0  0  0  0  0
    1.3026    0.0640   -0.5978 C   0  0  0  0  0  0  0  0  0  0  0  0
    2.4465    0.1202    0.1403 C   0  0  0  0  0  0  0  0  0  0  0  0
    2.3849    0.1172    1.4706 C   0  0  0  0  0  0  0  0  0  0  0  0
    1.4467    0.0124   -2.0918 C   0  0  0  0  0  0  0  0  0  0  0  0
    1.0107   -0.0483    3.5562 C   0  0  0  0  0  0  0  0  0  0  0  0
    2.1123   -0.0952    4.3567 C   0  0  0  0  0  0  0  0  0  0  0  0
    3.4175   -0.0934    3.7418 C   0  0  0  0  0  0  0  0  0  0  0  0
    3.6059   -0.0516    2.5208 O   0  0  0  0  0  0  0  0  0  0  0  0
    4.5495   -0.0892    4.7418 C   0  0  0  0  0  0  0  0  0  0  0  0
    5.5082   -1.2383    4.3558 C   0  0  0  0  0  0  0  0  0  0  0  0
   -1.0336    0.0000   -0.8276 O   0  0  0  0  0  0  0  0  0  0  0  0
   -2.3334    0.0000   -0.3018 C   0  0  0  0  0  0  0  0  0  0  0  0
    6.6693   -1.0556    5.2068 N   0  0  0  0  0  0  0  0  0  0  0  0
    4.8744   -2.6509    4.4924 C   0  0  0  0  0  0  0  0  0  0  0  0
    5.2654   -3.5211    3.3102 C   0  0  0  0  0  0  0  0  0  0  0  0
    4.5541   -4.8613    3.0665 C   0  0  0  0  0  0  0  0  0  0  0  0
    5.0468   -6.1241    3.7524 C   0  0  0  0  0  0  0  0  0  0  0  0
    5.0780   -5.0079    1.6105 C   0  0  0  0  0  0  0  0  0  0  0  0
    4.9825   -6.0283    1.0239 O   0  0  0  0  0  0  0  0  0  0  0  0
    5.5501   -3.8928    1.0939 O   0  0  0  0  0  0  0  0  0  0  0  0
    6.1281   -0.9680    2.9760 C   0  0  0  0  0  0  0  0  0  0  0  0
    3.0224   -4.6583    2.8290 C   0  0  0  0  0  0  0  0  0  0  0  0
    2.4225   -3.9053    3.9704 N   0  0  0  0  0  0  0  0  0  0  0  0
    1.8092   -4.6973    4.7780 C   0  0  0  0  0  0  0  0  0  0  0  0
    1.9463   -6.0835    4.3425 C   0  0  0  0  0  0  0  0  0  0  0  0
    1.6975   -7.0757    4.9724 O   0  0  0  0  0  0  0  0  0  0  0  0
    5.4075   -2.8209    1.9990 O   0  0  0  0  0  0  0  0  0  0  0  0
  1  2  2  0
  1  4  1  0
  1 14  1  0
  2  3  1  0
  3  6  1  0
  3  8  1  0
  4  5  2  0
  4  7  1  0
  5  6  2  0
  8  9  2  3
  9 10  1  0
 10 11  2  0
 10 12  1  0
 12 13  1  0
 13 16  1  0
 13 17  1  0
 13 24  1  0
 14 15  1  0
 17 18  1  0
 18 19  1  0
 18 30  1  0
 19 20  1  0
 19 21  1  0
 19 25  1  0
 21 22  2  0
 21 23  1  0
 23 30  1  0
 25 26  1  0
 26 27  2  3
 27 28  1  0
 28 29  2  0
M  END

$$$$

     RDKit          3D

 32 34  0  0  0  0  0  0  0  0999 V2000
    0.0000    0.0000    0.0000 C   0  0  0  0  0  0  0  0  0  0  0  0
    0.0000    0.0000    1.3625 N   0  0  0  0  0  0  0  0  0  0  0  0
    1.1676    0.0000    2.0029 C   0  0  0  0  0  0  0  0  0  0  0  0
    1.1719    0.0576   -0.6774 C   0  0  0  0  0  0  0  0  0  0  0  0
    2.3561   -0.0591   -0.1320 C   0  0  0  0  0  0  0  0  0  0  0  0
    2.4260   -0.1375    1.2824 C   0  0  0  0  0  0  0  0  0  0  0  0
    3.6241   -0.2107    2.0681 C   0  0  0  0  0  0  0  0  0  0  0  0
    3.5278   -0.5762    3.3371 N   0  0  0  0  0  0  0  0  0  0  0  0
    2.3319   -0.7079    3.9257 C   0  0  0  0  0  0  0  0  0  0  0  0
    1.1821   -0.4397    3.3432 N   0  0  0  0  0  0  0  0  0  0  0  0
    4.8933    0.0990    1.6809 N   0  0  0  0  0  0  0  0  0  0  0  0
   -1.3636   -0.0670   -0.6258 C   0  0  0  0  0  0  0  0  0  0  0  0
    3.5331   -0.1328   -1.0200 C   0  0  0  0  0  0  0  0  0  0  0  0
    3.7930    0.8886   -1.9204 C   0  0  0  0  0  0  0  0  0  0  0  0
    4.3380   -1.2704   -1.0591 C   0  0  0  0  0  0  0  0  0  0  0  0
    4.8816    0.7519   -2.7677 C   0  0  0  0  0  0  0  0  0  0  0  0
    5.3981   -1.4016   -1.8924 C   0  0  0  0  0  0  0  0  0  0  0  0
    5.7410   -0.3457   -2.7809 C   0  0  0  0  0  0  0  0  0  0  0  0
    2.3594   -1.1370    5.2104 N   0  0  0  0  0  0  0  0  0  0  0  0
   -1.8085   -1.5336   -0.8848 C   0  0  0  0  0  0  0  0  0  0  0  0
    6.9256   -0.4203   -3.6729 C   0  0  0  0  0  0  0  0  0  0  0  0
    6.9014    0.2164   -4.7076 O   0  0  0  0  0  0  0  0  0  0  0  0
   -3.1874   -1.4548   -1.5783 C   0  0  0  0  0  0  0  0  0  0  0  0
   -4.3182   -0.8562   -0.6801 C   0  0  0  0  0  0  0  0  0  0  0  0
   -0.7449   -2.1247   -1.7798 C   0  0  0  0  0  0  0  0  0  0  0  0
   -0.6609   -1.9434   -2.9504 O   0  0  0  0  0  0  0  0  0  0  0  0
    7.9874   -1.1425   -3.2175 N   0  0  0  0  0  0  0  0  0  0  0  0
    0.1800   -2.9024   -1.0686 N   0  0  0  0  0  0  0  0  0  0  0  0
   -4.5447    0.4423   -0.9577 O   0  0  0  0  0  0  0  0  0  0  0  0
   -5.4741   -1.5619   -0.8303 F   0  0  0  0  0  0  0  0  0  0  0  0
   -3.9694   -0.9357    0.6186 F   0  0  0  0  0  0  0  0  0  0  0  0
   -1.8186   -2.2886    0.4334 C   0  0  0  0  0  0  0  0  0  0  0  0
  1  2  2  0
  1  4  1  0
  1 12  1  0
  2  3  1  0
  3  6  2  0
  3 10  1  0
  4  5  2  0
  5  6  1  0
  5 13  1  0
  6  7  1  0
  7  8  2  0
  7 11  1  0
  8  9  1  0
  9 10  2  0
  9 19  1  0
 12 20  1  0
 13 14  2  0
 13 15  1  0
 14 16  1  0
 15 17  2  0
 16 18  2  0
 17 18  1  0
 18 21  1  0
 20 23  1  0
 20 25  1  0
 20 32  1  0
 21 22  2  0
 21 27  1  0
 23 24  1  0
 24 29  1  0
 24 30  1  0
 24 31  1  0
 25 26  2  0
 25 28  1  0
M  END

$$$$

     RDKit          3D

 31 32  0  0  0  0  0  0  0  0999 V2000
    0.0000    0.0000    0.0000 C   0  0  0  0  0  0  0  0  0  0  0  0
    0.0000    0.0000    1.3704 N   0  0  0  0  0  0  0  0  0  0  0  0
    1.1579    0.0000    1.9809 C   0  0  0  0  0  0  0  0  0  0  0  0
    1.1310   -0.0556   -0.8132 C   0  0  0  0  0  0  0  0  0  0  0  0
    2.3394   -0.1746   -0.1122 C   0  0  0  0  0  0  0  0  0  0  0  0
    2.3395   -0.1718    1.2661 C   0  0  0  0  0  0  0  0  0  0  0  0
    1.0804    0.0002   -2.2876 C   0  0  0  0  0  0  0  0  0  0  0  0
   -1.2533    0.0000   -0.6463 C   0  0  0  0  0  0  0  0  0  0  0  0
   -2.2791    0.0000   -1.1753 N   0  0  0  0  0  0  0  0  0  0  0  0
    3.3988   -0.2162    2.3056 C   0  0  0  0  0  0  0  0  0  0  0  0
    4.4819    1.2598    2.0718 S   0  0  0  0  0  0  0  0  0  0  0  0
    1.3781    0.0590    3.4567 C   0  0  0  0  0  0  0  0  0  0  0  0
    2.8555   -0.3645    3.6187 C   0  0  0  0  0  0  0  0  0  0  0  0
    6.1617    0.6077    2.1539 C   0  0  0  0  0  0  0  0  0  0  0  0
    6.9683    0.8355    3.1205 N   0  0  0  0  0  0  0  0  0  0  0  0
    6.6726    1.5716    4.1711 N   0  0  0  0  0  0  0  0  0  0  0  0
    7.5455    1.6822    5.2628 C   0  0  0  0  0  0  0  0  0  0  0  0
    7.0341    2.1640    6.2714 O   0  0  0  0  0  0  0  0  0  0  0  0
    0.9801   -1.6613   -3.1091 S   0  0  0  0  0  0  0  0  0  0  0  0
    8.9096    1.3007    5.0949 C   0  0  0  0  0  0  0  0  0  0  0  0
    9.8918    1.2865    6.0505 C   0  0  0  0  0  0  0  0  0  0  0  0
   -0.5209   -2.4197   -2.4012 C   0  0  0  0  0  0  0  0  0  0  0  0
   11.2800    0.8316    5.8376 C   0  0  0  0  0  0  0  0  0  0  0  0
   -0.2393   -3.1552   -1.0920 C   0  0  0  0  0  0  0  0  0  0  0  0
    6.5671   -0.1306    1.1224 N   0  0  0  0  0  0  0  0  0  0  0  0
    9.5782    1.7293    7.2918 N   0  0  0  0  0  0  0  0  0  0  0  0
   10.3583    1.6583    8.4354 C   0  0  0  0  0  0  0  0  0  0  0  0
    9.9884    2.5418    9.4594 C   0  0  0  0  0  0  0  0  0  0  0  0
   11.3909    0.7330    8.6438 C   0  0  0  0  0  0  0  0  0  0  0  0
   10.7132    2.4717   10.6482 C   0  0  0  0  0  0  0  0  0  0  0  0
   12.0657    0.6186    9.8767 C   0  0  0  0  0  0  0  0  0  0  0  0
  1  2  2  0
  1  4  1  0
  1  8  1  0
  2  3  1  0
  3  6  2  0
  3 12  1  0
  4  5  2  0
  4  7  1  0
  5  6  1  0
  6 10  1  0
  7 19  1  0
  8  9  3  0
 10 11  1  0
 10 13  1  0
 11 14  1  0
 12 13  1  0
 14 15  2  3
 14 25  1  0
 15 16  1  0
 16 17  1  0
 17 18  2  0
 17 20  1  0
 19 22  1  0
 20 21  2  3
 21 23  1  0
 21 26  1  0
 22 24  1  0
 26 27  1  0
 27 28  1  0
 27 29  1  0
 28 30  1  0
 29 31  1  0
M  END

$$$$

     RDKit          3D

 27 29  0  0  0  0  0  0  0  0999 V2000
    0.0000    0.0000    0.0000 C   0  0  0  0  0  0  0  0  0  0  0  0
    0.0000    0.0000    1.4264 C   0  0  0  0  0  0  0  0  0  0  0  0
    1.2192    0.0000    2.0692 C   0  0  0  0  0  0  0  0  0  0  0  0
    1.2409   -0.0610   -0.7173 C   0  0  0  0  0  0  0  0  0  0  0  0
    2.3399   -0.1150   -0.0083 C   0  0  0  0  0  0  0  0  0  0  0  0
    2.4667   -0.0617    1.3163 N   0  0  0  0  0  0  0  0  0  0  0  0
    3.4287   -0.0408    2.2480 N   0  0  0  0  0  0  0  0  0  0  0  0
    3.0371    0.0672    3.4535 N   0  0  0  0  0  0  0  0  0  0  0  0
    1.7265    0.1771    3.3946 N   0  0  0  0  0  0  0  0  0  0  0  0
    3.5912   -0.1231   -0.7915 N   0  0  0  0  0  0  0  0  0  0  0  0
   -1.2184   -0.0599    2.3025 C   0  0  0  0  0  0  0  0  0  0  0  0
   -1.5815   -1.5094    2.6208 C   0  0  0  0  0  0  0  0  0  0  0  0
   -1.2041    0.0000   -0.6209 N   0  0  0  0  0  0  0  0  0  0  0  0
   -1.4759    0.5085   -1.9435 C   0  0  0  0  0  0  0  0  0  0  0  0
   -1.6896    2.0481   -1.9531 C   0  0  0  0  0  0  0  0  0  0  0  0
   -0.5683    2.7210   -1.2500 C   0  0  0  0  0  0  0  0  0  0  0  0
   -0.5486    3.1401    0.0711 C   0  0  0  0  0  0  0  0  0  0  0  0
    0.9421    2.8551   -1.9828 S   0  0  0  0  0  0  0  0  0  0  0  0
    0.7381    3.5028    0.4942 C   0  0  0  0  0  0  0  0  0  0  0  0
    1.7162    3.4023   -0.4844 C   0  0  0  0  0  0  0  0  0  0  0  0
   -1.7517    3.2455    0.9639 C   0  0  0  0  0  0  0  0  0  0  0  0
   -1.5409    4.0331    2.0264 F   0  0  0  0  0  0  0  0  0  0  0  0
    3.1308    3.6847   -0.3266 C   0  0  0  0  0  0  0  0  0  0  0  0
    3.6350    3.9479    0.7472 O   0  0  0  0  0  0  0  0  0  0  0  0
   -2.1532    2.0533    1.4666 F   0  0  0  0  0  0  0  0  0  0  0  0
   -2.8120    3.7127    0.3075 F   0  0  0  0  0  0  0  0  0  0  0  0
    3.7920    3.5877   -1.4961 O   0  0  0  0  0  0  0  0  0  0  0  0
  1  2  2  0
  1  4  1  0
  1 13  1  0
  2  3  1  0
  2 11  1  0
  3  6  1  0
  3  9  2  0
  4  5  2  0
  5  6  1  0
  5 10  1  0
  6  7  1  0
  7  8  2  0
  8  9  1  0
 11 12  1  0
 13 14  1  0
 14 15  1  0
 15 16  1  0
 16 17  2  0
 16 18  1  0
 17 19  1  0
 17 21  1  0
 18 20  1  0
 19 20  2  0
 20 23  1  0
 21 22  1  0
 21 25  1  0
 21 26  1  0
 23 24  2  0
 23 27  1  0
M  END

$$$$

     RDKit          3D

 31 34  0  0  0  0  0  0  0  0999 V2000
    0.0000    0.0000    0.0000 C   0  0  0  0  0  0  0  0  0  0  0  0
    0.0000    0.0000    1.4511 C   0  0  0  0  0  0  0  0  0  0  0  0
    1.2435    0.0000    2.1332 C   0  0  0  0  0  0  0  0  0  0  0  0
    1.2731    0.0625   -0.5842 C   0  0  0  0  0  0  0  0  0  0  0  0
    2.3373   -0.0423    0.1838 C   0  0  0  0  0  0  0  0  0  0  0  0
    2.3366   -0.0297    1.5230 N   0  0  0  0  0  0  0  0  0  0  0  0
   -1.1440    0.0562    2.2737 C   0  0  0  0  0  0  0  0  0  0  0  0
   -1.0928    0.1026    3.6267 C   0  0  0  0  0  0  0  0  0  0  0  0
    0.1637    0.0952    4.2667 C   0  0  0  0  0  0  0  0  0  0  0  0
    1.3102    0.1001    3.5449 C   0  0  0  0  0  0  0  0  0  0  0  0
    3.6209   -0.1848   -0.4958 C   0  0  0  0  0  0  0  0  0  0  0  0
    3.7580    0.1942   -1.8221 C   0  0  0  0  0  0  0  0  0  0  0  0
    4.7101   -0.8390    0.1343 C   0  0  0  0  0  0  0  0  0  0  0  0
    4.9291   -0.0433   -2.5556 C   0  0  0  0  0  0  0  0  0  0  0  0
    5.8860   -1.1382   -0.6617 C   0  0  0  0  0  0  0  0  0  0  0  0
    4.8695   -1.2893    1.3450 N   0  0  0  0  0  0  0  0  0  0  0  0
    6.0164   -0.7275   -2.0352 C   0  0  0  0  0  0  0  0  0  0  0  0
    6.6866   -1.8513    0.0498 N   0  0  0  0  0  0  0  0  0  0  0  0
    6.0215   -1.9420    1.3419 O   0  0  0  0  0  0  0  0  0  0  0  0
   -1.0761   -0.1596   -0.7813 N   0  0  0  0  0  0  0  0  0  0  0  0
   -1.0689   -0.5961   -2.1565 C   0  0  0  0  0  0  0  0  0  0  0  0
    7.2057   -1.0721   -2.6758 N   0  0  0  0  0  0  0  0  0  0  0  0
   -2.3536   -1.3855   -2.3418 C   0  0  0  0  0  0  0  0  0  0  0  0
    2.6636    0.1466    4.1743 C   0  0  0  0  0  0  0  0  0  0  0  0
    8.2334   -1.6515   -1.8024 C   0  0  0  0  0  0  0  0  0  0  0  0
    7.1159   -1.6217   -4.0158 C   0  0  0  0  0  0  0  0  0  0  0  0
   -3.3328   -0.5305   -1.5557 C   0  0  0  0  0  0  0  0  0  0  0  0
    9.1602   -0.5738   -1.2186 C   0  0  0  0  0  0  0  0  0  0  0  0
   -2.9322   -0.3575   -0.1977 O   0  0  0  0  0  0  0  0  0  0  0  0
    2.7240    0.9689   -2.5010 N   0  0  0  0  0  0  0  0  0  0  0  0
    1.9373    0.2043   -3.4255 C   0  0  0  0  0  0  0  0  0  0  0  0
  1  2  2  0
  1  4  1  0
  1 20  1  0
  2  3  1  0
  2  7  1  0
  3  6  2  0
  3 10  1  0
  4  5  2  0
  5  6  1  0
  5 11  1  0
  7  8  2  0
  8  9  1  0
  9 10  2  0
 10 24  1  0
 11 12  2  0
 11 13  1  0
 12 14  1  0
 12 30  1  0
 13 15  1  0
 13 16  2  0
 14 17  2  0
 15 17  1  0
 15 18  2  0
 16 19  1  0
 17 22  1  0
 18 19  1  0
 20 21  1  0
 21 23  1  0
 22 25  1  0
 22 26  1  0
 23 27  1  0
 25 28  1  0
 27 29  1  0
 30 31  1  0
M  END

$$$$

     RDKit          3D

 28 31  0  0  0  0  0  0  0  0999 V2000
    0.0000    0.0000    0.0000 C   0  0  0  0  0  0  0  0  0  0  0  0
    0.0000    0.0000    1.3782 C   0  0  0  0  0  0  0  0  0  0  0  0
    1.2364    0.0000    2.0564 C   0  0  0  0  0  0  0  0  0  0  0  0
    1.0261   -0.0504   -0.7378 N   0  0  0  0  0  0  0  0  0  0  0  0
    2.2708   -0.1116   -0.0952 C   0  0  0  0  0  0  0  0  0  0  0  0
    2.3309   -0.2276    1.2690 C   0  0  0  0  0  0  0  0  0  0  0  0
   -1.2339    0.0000    2.1733 C   0  0  0  0  0  0  0  0  0  0  0  0
   -1.1783   -0.3505    3.5298 C   0  0  0  0  0  0  0  0  0  0  0  0
   -2.4870    0.2493    1.6565 C   0  0  0  0  0  0  0  0  0  0  0  0
   -2.3108   -0.4120    4.2990 C   0  0  0  0  0  0  0  0  0  0  0  0
   -3.6566    0.1882    2.4563 C   0  0  0  0  0  0  0  0  0  0  0  0
   -3.5238   -0.1378    3.7813 N   0  0  0  0  0  0  0  0  0  0  0  0
   -4.8199    0.3438    2.0913 O   0  0  0  0  0  0  0  0  0  0  0  0
    0.1529   -0.7106    4.1025 C   0  0  0  0  0  0  0  0  0  0  0  0
    3.3214   -0.0376   -0.9101 N   0  0  0  0  0  0  0  0  0  0  0  0
    3.2489   -0.0890   -2.3669 C   0  0  0  0  0  0  0  0  0  0  0  0
   -4.6943   -0.2343    4.5025 N   0  0  0  0  0  0  0  0  0  0  0  0
   -4.9013   -0.2764    5.8565 C   0  0  0  0  0  0  0  0  0  0  0  0
   -4.0272   -0.4043    6.6808 O   0  0  0  0  0  0  0  0  0  0  0  0
    4.6657   -0.4544   -2.8069 C   0  0  0  0  0  0  0  0  0  0  0  0
    1.2285    0.1936    3.5024 C   0  0  0  0  0  0  0  0  0  0  0  0
    5.4748    0.1779   -1.6756 C   0  0  0  0  0  0  0  0  0  0  0  0
    4.7319   -0.0187   -0.5045 C   0  0  0  0  0  0  0  0  0  0  0  0
    5.2119    1.4161   -0.0766 C   0  0  0  0  0  0  0  0  0  0  0  0
    6.6400    1.6595   -0.5620 C   0  0  0  0  0  0  0  0  0  0  0  0
    4.1692    2.4922   -0.4550 C   0  0  0  0  0  0  0  0  0  0  0  0
    4.1006    2.7556   -1.9674 C   0  0  0  0  0  0  0  0  0  0  0  0
    5.3703    1.5666    1.4267 C   0  0  0  0  0  0  0  0  0  0  0  0
  1  2  2  0
  1  4  1  0
  2  3  1  0
  2  7  1  0
  3  6  2  0
  3 21  1  0
  4  5  2  0
  5  6  1  0
  5 15  1  0
  7  8  1  0
  7  9  2  0
  8 10  2  0
  8 14  1  0
  9 11  1  0
 10 12  1  0
 11 12  1  0
 11 13  2  0
 12 17  1  0
 14 21  1  0
 15 16  1  0
 15 23  1  0
 16 20  1  0
 17 18  1  0
 18 19  2  0
 20 22  1  0
 22 23  1  0
 23 24  1  0
 24 25  1  0
 24 26  1  0
 24 28  1  0
 26 27  1  0
M  END

$$$$

     RDKit          3D

 32 34  0  0  0  0  0  0  0  0999 V2000
    0.0000    0.0000    0.0000 C   0  0  0  0  0  0  0  0  0  0  0  0
    0.0000    0.0000    1.3470 C   0  0  0  0  0  0  0  0  0  0  0  0
    1.0898    0.0000    2.2036 N   0  0  0  0  0  0  0  0  0  0  0  0
    1.3327   -0.0655   -0.6116 C   0  0  0  0  0  0  0  0  0  0  0  0
    2.4586   -0.0655    0.1970 C   0  0  0  0  0  0  0  0  0  0  0  0
    2.2558   -0.1172    1.5834 C   0  0  0  0  0  0  0  0  0  0  0  0
    0.9350   -0.1548    3.6214 C   0  0  0  0  0  0  0  0  0  0  0  0
    1.1879   -1.2399    4.1236 O   0  0  0  0  0  0  0  0  0  0  0  0
    3.7398    0.0245   -0.2342 F   0  0  0  0  0  0  0  0  0  0  0  0
   -1.2492    0.1230   -0.8089 C   0  0  0  0  0  0  0  0  0  0  0  0
    1.3794   -0.1170   -1.9724 N   0  0  0  0  0  0  0  0  0  0  0  0
    3.3463   -0.2383    2.2974 N   0  0  0  0  0  0  0  0  0  0  0  0
    3.2683   -0.3588    3.7331 C   0  0  0  0  0  0  0  0  0  0  0  0
    0.2547   -0.2370   -2.8414 C   0  0  0  0  0  0  0  0  0  0  0  0
   -0.4855   -1.3786   -2.4706 O   0  0  0  0  0  0  0  0  0  0  0  0
    2.6054    0.3275   -2.6089 C   0  0  0  0  0  0  0  0  0  0  0  0
    3.3148    1.5135   -1.9993 C   0  0  0  0  0  0  0  0  0  0  0  0
    4.6699    1.5744   -1.8706 C   0  0  0  0  0  0  0  0  0  0  0  0
    2.5096    2.5512   -1.4861 C   0  0  0  0  0  0  0  0  0  0  0  0
    5.3768    2.6418   -1.2602 C   0  0  0  0  0  0  0  0  0  0  0  0
    3.1954    3.5825   -0.8996 C   0  0  0  0  0  0  0  0  0  0  0  0
    6.7621    2.7257   -1.0601 C   0  0  0  0  0  0  0  0  0  0  0  0
    4.6296    3.7220   -0.7469 C   0  0  0  0  0  0  0  0  0  0  0  0
    7.4076    3.7758   -0.4089 C   0  0  0  0  0  0  0  0  0  0  0  0
    5.2732    4.7640   -0.0978 C   0  0  0  0  0  0  0  0  0  0  0  0
    6.5481    4.7832    0.1212 C   0  0  0  0  0  0  0  0  0  0  0  0
   -0.5801    1.0740   -2.8548 C   0  0  0  0  0  0  0  0  0  0  0  0
   -0.2021    2.1871   -2.6857 O   0  0  0  0  0  0  0  0  0  0  0  0
    8.7519    3.7074   -0.3585 O   0  0  0  0  0  0  0  0  0  0  0  0
    7.1253    5.7929    0.8008 O   0  0  0  0  0  0  0  0  0  0  0  0
   -1.8260    0.7078   -3.0713 O   0  0  0  0  0  0  0  0  0  0  0  0
    0.7492   -0.4380   -4.2918 C   0  0  0  0  0  0  0  0  0  0  0  0
  1  2  2  0
  1  4  1  0
  1 10  1  0
  2  3  1  0
  3  6  1  0
  3  7  1  0
  4  5  2  0
  4 11  1  0
  5  6  1  0
  5  9  1  0
  6 12  2  3
  7  8  2  0
 11 14  1  0
 11 16  1  0
 12 13  1  0
 14 15  1  0
 14 27  1  0
 14 32  1  0
 16 17  1  0
 17 18  2  0
 17 19  1  0
 18 20  1  0
 19 21  2  0
 20 22  2  0
 20 23  1  0
 21 23  1  0
 22 24  1  0
 23 25  2  0
 24 26  2  0
 24 29  1  0
 25 26  1  0
 26 30  1  0
 27 28  2  0
 27 31  1  0
M  END

$$$$

     RDKit          3D

 31 34  0  0  0  0  0  0  0  0999 V2000
    0.0000    0.0000    0.0000 C   0  0  0  0  0  0  0  0  0  0  0  0
    0.0000    0.0000    1.4595 C   0  0  0  0  0  0  0  0  0  0  0  0
    1.2539    0.0000    2.0688 C   0  0  0  0  0  0  0  0  0  0  0  0
    1.1453   -0.0563   -0.6620 C   0  0  0  0  0  0  0  0  0  0  0  0
    2.3618   -0.1160   -0.0340 N   0  0  0  0  0  0  0  0  0  0  0  0
    2.4257   -0.1192    1.3116 C   0  0  0  0  0  0  0  0  0  0  0  0
   -1.1323    0.0000    2.1891 N   0  0  0  0  0  0  0  0  0  0  0  0
   -2.4150   -0.1903    1.5948 C   0  0  0  0  0  0  0  0  0  0  0  0
   -3.2333    0.9210    1.3972 C   0  0  0  0  0  0  0  0  0  0  0  0
   -2.8063   -1.4975    1.3092 C   0  0  0  0  0  0  0  0  0  0  0  0
   -4.4997    0.7795    0.8721 C   0  0  0  0  0  0  0  0  0  0  0  0
   -4.0640   -1.7354    0.7772 C   0  0  0  0  0  0  0  0  0  0  0  0
   -4.8978   -0.5111    0.5601 C   0  0  0  0  0  0  0  0  0  0  0  0
    3.7614   -0.1315    1.9400 C   0  0  0  0  0  0  0  0  0  0  0  0
    4.5871    0.9715    1.7877 C   0  0  0  0  0  0  0  0  0  0  0  0
    4.1675   -1.1904    2.7231 C   0  0  0  0  0  0  0  0  0  0  0  0
    5.8286    0.8954    2.3440 C   0  0  0  0  0  0  0  0  0  0  0  0
    5.4362   -1.2696    3.2956 C   0  0  0  0  0  0  0  0  0  0  0  0
    6.3451   -0.2048    3.0591 C   0  0  0  0  0  0  0  0  0  0  0  0
   -1.0743    0.2164    3.6397 C   0  0  0  0  0  0  0  0  0  0  0  0
   -6.1024   -0.6908    0.0029 F   0  0  0  0  0  0  0  0  0  0  0  0
    7.6105   -0.1173    3.4892 O   0  0  0  0  0  0  0  0  0  0  0  0
   -1.4896   -1.0330    4.3976 C   0  0  0  0  0  0  0  0  0  0  0  0
   -2.7419   -1.0490    4.9730 C   0  0  0  0  0  0  0  0  0  0  0  0
   -0.6934   -2.1675    4.4181 C   0  0  0  0  0  0  0  0  0  0  0  0
   -3.2189   -2.1197    5.7424 C   0  0  0  0  0  0  0  0  0  0  0  0
   -1.0907   -3.2662    5.1640 C   0  0  0  0  0  0  0  0  0  0  0  0
   -2.3864   -3.2214    5.8634 C   0  0  0  0  0  0  0  0  0  0  0  0
    8.3751   -1.0782    4.1657 C   0  0  0  0  0  0  0  0  0  0  0  0
    5.7493   -2.4308    4.0320 N   0  0  0  0  0  0  0  0  0  0  0  0
    4.9040   -3.2932    4.0696 O   0  0  0  0  0  0  0  0  0  0  0  0
  1  2  2  0
  1  4  1  0
  2  3  1  0
  2  7  1  0
  3  6  2  0
  4  5  2  0
  5  6  1  0
  6 14  1  0
  7  8  1  0
  7 20  1  0
  8  9  1  0
  8 10  1  0
  9 11  2  0
 10 12  2  0
 11 13  2  0
 12 13  1  0
 13 21  1  0
 14 15  2  0
 14 16  1  0
 15 17  1  0
 16 18  2  0
 17 19  2  0
 18 19  1  0
 18 30  1  0
 19 22  1  0
 20 23  1  0
 22 29  1  0
 23 24  2  0
 23 25  1  0
 24 26  1  0
 25 27  2  0
 26 28  2  0
 27 28  1  0
 30 31  2  0
M  END

$$$$

     RDKit          3D

 26 27  0  0  0  0  0  0  0  0999 V2000
    0.0000    0.0000    0.0000 C   0  0  0  0  0  0  0  0  0  0  0  0
    0.0000    0.0000    1.3782 C   0  0  0  0  0  0  0  0  0  0  0  0
    1.1569    0.0000    2.0378 C   0  0  0  0  0  0  0  0  0  0  0  0
    1.0578   -0.1569   -0.7680 N   0  0  0  0  0  0  0  0  0  0  0  0
    2.1822   -0.2121   -0.0425 C   0  0  0  0  0  0  0  0  0  0  0  0
    2.3863   -0.1372    1.2636 C   0  0  0  0  0  0  0  0  0  0  0  0
    3.5405   -0.3264    1.9625 N   0  0  0  0  0  0  0  0  0  0  0  0
    4.2185    0.2484    3.0886 C   0  0  0  0  0  0  0  0  0  0  0  0
    1.2874    0.0541    3.4167 N   0  0  0  0  0  0  0  0  0  0  0  0
    5.2114    1.3205    2.6130 C   0  0  0  0  0  0  0  0  0  0  0  0
    4.5000    2.5309    1.9256 C   0  0  0  0  0  0  0  0  0  0  0  0
    3.1868    2.7661    2.3570 O   0  0  0  0  0  0  0  0  0  0  0  0
    0.3455   -0.2066    4.3773 C   0  0  0  0  0  0  0  0  0  0  0  0
   -0.8088   -0.4847    4.0879 O   0  0  0  0  0  0  0  0  0  0  0  0
    0.8490   -0.1056    5.7613 C   0  0  0  0  0  0  0  0  0  0  0  0
    2.0411    0.4922    6.1094 C   0  0  0  0  0  0  0  0  0  0  0  0
    0.1750   -0.6569    6.9014 C   0  0  0  0  0  0  0  0  0  0  0  0
    2.2870    0.3434    7.7786 S   0  0  0  0  0  0  0  0  0  0  0  0
    0.8691   -0.4747    8.0506 C   0  0  0  0  0  0  0  0  0  0  0  0
   -1.1255   -1.4045    6.8284 C   0  0  0  0  0  0  0  0  0  0  0  0
    6.3448    0.6486    1.4265 Cl  0  0  0  0  0  0  0  0  0  0  0  0
    6.1286    1.8699    4.0275 Cl  0  0  0  0  0  0  0  0  0  0  0  0
   -1.4086   -2.0960    8.2015 C   0  0  0  0  0  0  0  0  0  0  0  0
   -2.1371   -0.5301    6.3557 O   0  0  0  0  0  0  0  0  0  0  0  0
   -2.4734   -1.3791    8.8234 O   0  0  0  0  0  0  0  0  0  0  0  0
   -0.1615   -2.1701    9.0964 C   0  0  0  0  0  0  0  0  0  0  0  0
  1  2  2  0
  1  4  1  0
  2  3  1  0
  3  6  2  0
  3  9  1  0
  4  5  2  0
  5  6  1  0
  6  7  1  0
  7  8  1  0
  8 10  1  0
  9 13  1  0
 10 11  1  0
 10 21  1  0
 10 22  1  0
 11 12  1  0
 13 14  2  0
 13 15  1  0
 15 16  2  0
 15 17  1  0
 16 18  1  0
 17 19  2  0
 17 20  1  0
 18 19  1  0
 20 23  1  0
 20 24  1  0
 23 25  1  0
 23 26  1  0
M  END

$$$$

     RDKit          3D

 23 23  0  0  0  0  0  0  0  0999 V2000
    0.0000    0.0000    0.0000 C   0  0  0  0  0  0  0  0  0  0  0  0
    0.0000    0.0000    1.2867 N   0  0  0  0  0  0  0  0  0  0  0  0
    1.2474    0.0000    1.9444 C   0  0  0  0  0  0  0  0  0  0  0  0
    1.1137   -0.1652   -0.8086 C   0  0  0  0  0  0  0  0  0  0  0  0
    2.3749   -0.3523   -0.1511 C   0  0  0  0  0  0  0  0  0  0  0  0
    2.3921   -0.1878    1.2252 C   0  0  0  0  0  0  0  0  0  0  0  0
    1.1936    0.2009    3.2910 N   0  0  0  0  0  0  0  0  0  0  0  0
    3.5022   -0.5698   -0.9136 N   0  0  0  0  0  0  0  0  0  0  0  0
    2.3869    0.4678    4.0569 C   0  0  0  0  0  0  0  0  0  0  0  0
    0.9918   -0.0921   -2.1954 C   0  0  0  0  0  0  0  0  0  0  0  0
    0.8962    0.0161   -3.3272 N   0  0  0  0  0  0  0  0  0  0  0  0
   -1.3272    0.0000   -0.6844 N   0  0  0  0  0  0  0  0  0  0  0  0
    2.9862   -0.8479    4.6029 C   0  0  0  0  0  0  0  0  0  0  0  0
    0.0488   -0.2089    4.0524 C   0  0  0  0  0  0  0  0  0  0  0  0
    3.5221   -1.6959    3.6233 O   0  0  0  0  0  0  0  0  0  0  0  0
    3.5192   -1.6339   -1.9123 C   0  0  0  0  0  0  0  0  0  0  0  0
    0.0419   -1.7868    4.1542 C   0  0  0  0  0  0  0  0  0  0  0  0
    0.7609   -2.2858    5.4604 C   0  0  0  0  0  0  0  0  0  0  0  0
    3.9728   -2.9384   -1.2187 C   0  0  0  0  0  0  0  0  0  0  0  0
    0.0132   -3.2435    6.3868 C   0  0  0  0  0  0  0  0  0  0  0  0
   -1.6013   -2.4439    4.0444 Cl  0  0  0  0  0  0  0  0  0  0  0  0
    2.2697   -3.0715    4.9253 Cl  0  0  0  0  0  0  0  0  0  0  0  0
    1.1435   -2.4792    2.9496 Cl  0  0  0  0  0  0  0  0  0  0  0  0
  1  2  2  0
  1  4  1  0
  1 12  1  0
  2  3  1  0
  3  6  2  0
  3  7  1  0
  4  5  2  0
  4 10  1  0
  5  6  1  0
  5  8  1  0
  7  9  1  0
  7 14  1  0
  8 16  1  0
  9 13  1  0
 10 11  3  0
 13 15  1  0
 14 17  1  0
 16 19  1  0
 17 18  1  0
 17 21  1  0
 17 23  1  0
 18 20  1  0
 18 22  1  0
M  END

$$$$

     RDKit          3D

 22 23  0  0  0  0  0  0  0  0999 V2000
    0.0000    0.0000    0.0000 C   0  0  0  0  0  0  0  0  0  0  0  0
    0.0000    0.0000    1.4021 C   0  0  0  0  0  0  0  0  0  0  0  0
    1.3895    0.0000    1.9945 C   0  0  0  0  0  0  0  0  0  0  0  0
    1.1853    0.0582   -0.6852 C   0  0  0  0  0  0  0  0  0  0  0  0
    2.3959    0.0582   -0.1303 N   0  0  0  0  0  0  0  0  0  0  0  0
    2.3962    0.0517    1.2090 C   0  0  0  0  0  0  0  0  0  0  0  0
   -1.0707   -0.1055    2.2635 C   0  0  0  0  0  0  0  0  0  0  0  0
   -2.4687   -0.3128    2.1453 C   0  0  0  0  0  0  0  0  0  0  0  0
   -3.1555   -0.2953    3.2773 N   0  0  0  0  0  0  0  0  0  0  0  0
   -4.5977   -0.4301    3.3643 C   0  0  0  0  0  0  0  0  0  0  0  0
    3.7294    0.1053    1.8796 C   0  0  0  0  0  0  0  0  0  0  0  0
   -1.1908   -0.0585   -0.8562 N   0  0  0  0  0  0  0  0  0  0  0  0
    3.6333   -0.0160   -0.9165 C   0  0  0  0  0  0  0  0  0  0  0  0
    3.1508   -0.0238   -2.2159 O   0  0  0  0  0  0  0  0  0  0  0  0
   -3.0176   -0.5823    0.9963 O   0  0  0  0  0  0  0  0  0  0  0  0
    4.3295   -1.3544   -0.5809 C   0  0  0  0  0  0  0  0  0  0  0  0
    3.5411   -1.2693   -2.8309 C   0  0  0  0  0  0  0  0  0  0  0  0
    2.2542   -1.9623   -3.3051 C   0  0  0  0  0  0  0  0  0  0  0  0
    1.4610   -2.4008   -2.2352 O   0  0  0  0  0  0  0  0  0  0  0  0
   -5.0062   -1.2792    2.1616 C   0  0  0  0  0  0  0  0  0  0  0  0
    4.2718   -1.6949    0.8031 O   0  0  0  0  0  0  0  0  0  0  0  0
    4.4929   -2.0554   -1.8864 C   0  0  0  0  0  0  0  0  0  0  0  0
  1  2  1  0
  1  4  2  0
  1 12  1  0
  2  3  1  0
  2  7  2  3
  3  6  2  0
  4  5  1  0
  5  6  1  0
  5 13  1  0
  6 11  1  0
  7  8  1  0
  8  9  2  3
  8 15  1  0
  9 10  1  0
 10 20  1  0
 13 14  1  0
 13 16  1  0
 14 17  1  0
 16 21  1  0
 16 22  1  0
 17 18  1  0
 17 22  1  0
 18 19  1  0
M  END

$$$$

     RDKit          3D

 18 19  0  0  0  0  0  0  0  0999 V2000
    0.0000    0.0000    0.0000 C   0  0  0  0  0  0  0  0  0  0  0  0
    0.0000    0.0000    1.2941 C   0  0  0  0  0  0  0  0  0  0  0  0
    1.0674    0.0000    2.0777 N   0  0  0  0  0  0  0  0  0  0  0  0
    1.2128   -0.0596   -0.7011 C   0  0  0  0  0  0  0  0  0  0  0  0
    2.4173   -0.1188    0.0760 C   0  0  0  0  0  0  0  0  0  0  0  0
    2.3535   -0.1156    1.3835 C   0  0  0  0  0  0  0  0  0  0  0  0
    1.0176    0.0497    3.4541 C   0  0  0  0  0  0  0  0  0  0  0  0
    1.8720    0.6189    4.3738 C   0  0  0  0  0  0  0  0  0  0  0  0
   -0.3555   -0.6411    4.2327 S   0  0  0  0  0  0  0  0  0  0  0  0
    1.4836    0.3971    5.7369 C   0  0  0  0  0  0  0  0  0  0  0  0
    0.3607   -0.2503    5.7281 C   0  0  0  0  0  0  0  0  0  0  0  0
    1.2631   -0.0140   -2.0310 N   0  0  0  0  0  0  0  0  0  0  0  0
    0.0514    0.1575   -2.7317 O   0  0  0  0  0  0  0  0  0  0  0  0
    2.9308    1.4714    4.0302 C   0  0  0  0  0  0  0  0  0  0  0  0
    3.7826    2.2120    3.7895 N   0  0  0  0  0  0  0  0  0  0  0  0
    2.4604    0.4147   -2.6216 O   0  0  0  0  0  0  0  0  0  0  0  0
    2.2486    0.8444    6.9281 C   0  0  0  0  0  0  0  0  0  0  0  0
    3.4131   -0.2911    2.1318 N   0  0  0  0  0  0  0  0  0  0  0  0
  1  2  2  0
  1  4  1  0
  2  3  1  0
  3  6  1  0
  3  7  1  0
  4  5  2  0
  4 12  1  0
  5  6  1  0
  6 18  2  0
  7  8  2  0
  7  9  1  0
  8 10  1  0
  8 14  1  0
  9 11  1  0
 10 11  2  0
 10 17  1  0
 12 13  1  0
 12 16  1  0
 14 15  3  0
M  END

$$$$

     RDKit          3D

 18 19  0  0  0  0  0  0  0  0999 V2000
    0.0000    0.0000    0.0000 C   0  0  0  0  0  0  0  0  0  0  0  0
    0.0000    0.0000    1.2867 N   0  0  0  0  0  0  0  0  0  0  0  0
    1.2474    0.0000    1.9444 C   0  0  0  0  0  0  0  0  0  0  0  0
    1.1137   -0.1652   -0.8086 C   0  0  0  0  0  0  0  0  0  0  0  0
    2.3749   -0.3523   -0.1511 C   0  0  0  0  0  0  0  0  0  0  0  0
    2.3921   -0.1878    1.2252 C   0  0  0  0  0  0  0  0  0  0  0  0
   -1.3499    0.2685   -0.5568 N   0  0  0  0  0  0  0  0  0  0  0  0
    3.4758   -0.6453   -0.8986 N   0  0  0  0  0  0  0  0  0  0  0  0
    0.9911   -0.0917   -2.2034 C   0  0  0  0  0  0  0  0  0  0  0  0
    0.8938    0.0183   -3.3548 N   0  0  0  0  0  0  0  0  0  0  0  0
    1.1946    0.1276    3.2921 N   0  0  0  0  0  0  0  0  0  0  0  0
    0.0157    0.5535    3.9900 C   0  0  0  0  0  0  0  0  0  0  0  0
    0.1283    1.3917    5.2207 C   0  0  0  0  0  0  0  0  0  0  0  0
   -0.3456    2.0288    3.9634 C   0  0  0  0  0  0  0  0  0  0  0  0
    4.8085   -0.8257   -0.5971 C   0  0  0  0  0  0  0  0  0  0  0  0
    5.2303   -0.6784    0.5106 O   0  0  0  0  0  0  0  0  0  0  0  0
    5.4943   -1.1556   -1.7086 O   0  0  0  0  0  0  0  0  0  0  0  0
    6.8714   -1.4362   -1.5929 C   0  0  0  0  0  0  0  0  0  0  0  0
  1  2  2  0
  1  4  1  0
  1  7  1  0
  2  3  1  0
  3  6  2  0
  3 11  1  0
  4  5  2  0
  4  9  1  0
  5  6  1  0
  5  8  1  0
  8 15  1  0
  9 10  3  0
 11 12  1  0
 12 13  1  0
 12 14  1  0
 13 14  1  0
 15 16  2  0
 15 17  1  0
 17 18  1  0
M  END

$$$$

     RDKit          3D

 32 34  0  0  0  0  0  0  0  0999 V2000
    0.0000    0.0000    0.0000 C   0  0  0  0  0  0  0  0  0  0  0  0
    0.0000    0.0000    1.3941 N   0  0  0  0  0  0  0  0  0  0  0  0
    1.0484    0.0000    2.0624 C   0  0  0  0  0  0  0  0  0  0  0  0
    1.2080    0.1792   -0.7051 C   0  0  0  0  0  0  0  0  0  0  0  0
    2.3134    0.2335    0.0080 C   0  0  0  0  0  0  0  0  0  0  0  0
    2.3208    0.1790    1.4665 C   0  0  0  0  0  0  0  0  0  0  0  0
    3.5341    0.1987    1.9372 N   0  0  0  0  0  0  0  0  0  0  0  0
    3.5737    0.4491   -0.4158 N   0  0  0  0  0  0  0  0  0  0  0  0
   -1.2252    0.1817   -0.5677 N   0  0  0  0  0  0  0  0  0  0  0  0
   -1.5934   -0.1519   -1.7074 N   0  0  0  0  0  0  0  0  0  0  0  0
    3.9894    0.7345   -1.7328 C   0  0  0  0  0  0  0  0  0  0  0  0
    4.8381   -0.1319   -2.3874 C   0  0  0  0  0  0  0  0  0  0  0  0
    3.4440    1.8724   -2.3978 C   0  0  0  0  0  0  0  0  0  0  0  0
    5.2316    0.0799   -3.6912 C   0  0  0  0  0  0  0  0  0  0  0  0
    3.7958    2.0392   -3.7701 C   0  0  0  0  0  0  0  0  0  0  0  0
    2.5963    2.8086   -1.7704 C   0  0  0  0  0  0  0  0  0  0  0  0
    4.7849    1.1782   -4.3939 C   0  0  0  0  0  0  0  0  0  0  0  0
    3.2468    3.1093   -4.4752 C   0  0  0  0  0  0  0  0  0  0  0  0
    2.0537    3.8665   -2.4675 C   0  0  0  0  0  0  0  0  0  0  0  0
    2.4315    4.0235   -3.8608 C   0  0  0  0  0  0  0  0  0  0  0  0
    4.4651    0.3787    0.6329 O   0  0  0  0  0  0  0  0  0  0  0  0
    3.9462    0.1101    3.2165 O   0  0  0  0  0  0  0  0  0  0  0  0
    5.1980    1.2509   -5.6821 O   0  0  0  0  0  0  0  0  0  0  0  0
   -1.0010   -0.9895   -2.5804 C   0  0  0  0  0  0  0  0  0  0  0  0
   -1.1901   -0.7723   -3.9202 N   0  0  0  0  0  0  0  0  0  0  0  0
   -0.3115   -2.2216   -2.3776 C   0  0  0  0  0  0  0  0  0  0  0  0
   -0.6708   -1.7495   -4.6611 C   0  0  0  0  0  0  0  0  0  0  0  0
   -0.1470   -2.7497   -3.5557 N   0  0  0  0  0  0  0  0  0  0  0  0
    1.8726    5.0367   -4.6096 O   0  0  0  0  0  0  0  0  0  0  0  0
    1.2013    4.7180   -1.8311 O   0  0  0  0  0  0  0  0  0  0  0  0
    4.3332    1.9923   -6.5676 C   0  0  0  0  0  0  0  0  0  0  0  0
   -0.6100   -1.8639   -5.9864 N   0  0  0  0  0  0  0  0  0  0  0  0
  1  2  1  0
  1  4  1  0
  1  9  1  0
  2  3  2  0
  3  6  1  0
  4  5  2  0
  5  6  1  0
  5  8  1  0
  6  7  2  3
  7 22  1  0
  8 11  1  0
  8 21  1  0
  9 10  2  3
 10 24  1  0
 11 12  2  0
 11 13  1  0
 12 14  1  0
 13 15  2  0
 13 16  1  0
 14 17  2  0
 15 17  1  0
 15 18  1  0
 16 19  2  0
 17 23  1  0
 18 20  2  0
 19 20  1  0
 19 30  1  0
 20 29  1  0
 23 31  1  0
 24 25  1  0
 24 26  1  0
 25 27  1  0
 26 28  2  0
 27 32  1  0
M  END

$$$$

     RDKit          3D

 28 30  0  0  0  0  0  0  0  0999 V2000
    0.0000    0.0000    0.0000 C   0  0  0  0  0  0  0  0  0  0  0  0
    0.0000    0.0000    1.4264 C   0  0  0  0  0  0  0  0  0  0  0  0
    1.2321    0.0000    2.1288 C   0  0  0  0  0  0  0  0  0  0  0  0
    1.1915    0.1173   -0.6174 C   0  0  0  0  0  0  0  0  0  0  0  0
    2.3701    0.1173    0.1421 C   0  0  0  0  0  0  0  0  0  0  0  0
    2.4352    0.0689    1.4486 N   0  0  0  0  0  0  0  0  0  0  0  0
   -1.2139    0.1196    2.2124 C   0  0  0  0  0  0  0  0  0  0  0  0
   -1.0797   -0.1315    3.5853 N   0  0  0  0  0  0  0  0  0  0  0  0
   -2.3043    0.4503    1.7515 O   0  0  0  0  0  0  0  0  0  0  0  0
    0.1768   -0.3013    4.0843 C   0  0  0  0  0  0  0  0  0  0  0  0
    1.3025   -0.2701    3.4928 N   0  0  0  0  0  0  0  0  0  0  0  0
   -1.2492   -0.1230   -0.8089 C   0  0  0  0  0  0  0  0  0  0  0  0
   -2.2269   -0.3709    4.4270 C   0  0  0  0  0  0  0  0  0  0  0  0
    3.9444    0.3296   -0.5990 S   0  0  0  0  0  0  0  0  0  0  0  0
    5.0442    0.1678    0.8479 C   0  0  0  0  0  0  0  0  0  0  0  0
   -2.2388   -1.7413    5.0826 C   0  0  0  0  0  0  0  0  0  0  0  0
   -2.7615   -2.0345    6.1078 O   0  0  0  0  0  0  0  0  0  0  0  0
   -1.5690   -2.6022    4.3320 O   0  0  0  0  0  0  0  0  0  0  0  0
    5.0214   -1.2120    1.4405 C   0  0  0  0  0  0  0  0  0  0  0  0
    5.4171   -1.3577    2.7693 C   0  0  0  0  0  0  0  0  0  0  0  0
    4.6935   -2.3545    0.7745 C   0  0  0  0  0  0  0  0  0  0  0  0
    5.4596   -2.6111    3.3409 C   0  0  0  0  0  0  0  0  0  0  0  0
    4.7356   -3.6431    1.3654 C   0  0  0  0  0  0  0  0  0  0  0  0
    5.1256   -3.7503    2.6565 C   0  0  0  0  0  0  0  0  0  0  0  0
    4.3562   -4.7402    0.6821 N   0  0  0  0  0  0  0  0  0  0  0  0
    3.7328   -4.5574   -0.6062 C   0  0  0  0  0  0  0  0  0  0  0  0
    5.8988   -2.7096    4.6269 F   0  0  0  0  0  0  0  0  0  0  0  0
    4.5066   -6.0831    1.1878 C   0  0  0  0  0  0  0  0  0  0  0  0
  1  2  2  0
  1  4  1  0
  1 12  1  0
  2  3  1  0
  2  7  1  0
  3  6  2  0
  3 11  1  0
  4  5  2  0
  5  6  1  0
  5 14  1  0
  7  8  1  0
  7  9  2  0
  8 10  1  0
  8 13  1  0
 10 11  2  0
 13 16  1  0
 14 15  1  0
 15 19  1  0
 16 17  2  0
 16 18  1  0
 19 20  2  0
 19 21  1  0
 20 22  1  0
 21 23  2  0
 22 24  2  0
 22 27  1  0
 23 24  1  0
 23 25  1  0
 25 26  1  0
 25 28  1  0
M  END

$$$$

     RDKit          3D

 32 35  0  0  0  0  0  0  0  0999 V2000
    0.0000    0.0000    0.0000 C   0  0  0  0  0  0  0  0  0  0  0  0
    0.0000    0.0000    1.3862 C   0  0  0  0  0  0  0  0  0  0  0  0
    1.2684    0.0000    2.0025 C   0  0  0  0  0  0  0  0  0  0  0  0
    1.1269   -0.1110   -0.7296 N   0  0  0  0  0  0  0  0  0  0  0  0
    2.3122   -0.0528   -0.0445 C   0  0  0  0  0  0  0  0  0  0  0  0
    2.4353   -0.1301    1.3103 C   0  0  0  0  0  0  0  0  0  0  0  0
   -1.2409    0.0000    2.1858 C   0  0  0  0  0  0  0  0  0  0  0  0
   -1.0809    0.2395    3.5745 C   0  0  0  0  0  0  0  0  0  0  0  0
   -2.3124   -0.2131    1.6225 O   0  0  0  0  0  0  0  0  0  0  0  0
    0.1788    0.3448    4.1433 C   0  0  0  0  0  0  0  0  0  0  0  0
    1.2923    0.2254    3.4086 N   0  0  0  0  0  0  0  0  0  0  0  0
    0.2925    0.5419    5.6019 C   0  0  0  0  0  0  0  0  0  0  0  0
   -0.2067   -0.4339    6.4634 C   0  0  0  0  0  0  0  0  0  0  0  0
    0.9177    1.6557    6.0982 C   0  0  0  0  0  0  0  0  0  0  0  0
   -0.0798   -0.3172    7.8229 C   0  0  0  0  0  0  0  0  0  0  0  0
    0.9575    1.8258    7.5057 C   0  0  0  0  0  0  0  0  0  0  0  0
    0.5537    0.7820    8.4009 C   0  0  0  0  0  0  0  0  0  0  0  0
    1.4762    3.0076    7.9425 N   0  0  0  0  0  0  0  0  0  0  0  0
    3.5189    0.0390   -0.9192 C   0  0  0  0  0  0  0  0  0  0  0  0
    2.5019    3.8290    7.3269 C   0  0  0  0  0  0  0  0  0  0  0  0
   -2.2675    0.3235    4.4913 C   0  0  0  0  0  0  0  0  0  0  0  0
    1.0830    3.5373    9.2072 C   0  0  0  0  0  0  0  0  0  0  0  0
   -0.3063    4.7300    8.8432 S   0  0  0  0  0  0  0  0  0  0  0  0
   -1.9240   -0.2885    5.7614 N   0  0  0  0  0  0  0  0  0  0  0  0
   -1.8377   -1.7528    5.7067 C   0  0  0  0  0  0  0  0  0  0  0  0
    1.0413   -0.3930   -2.1505 C   0  0  0  0  0  0  0  0  0  0  0  0
    1.0007   -1.9355   -2.3373 C   0  0  0  0  0  0  0  0  0  0  0  0
    1.9860    5.1555    6.7475 C   0  0  0  0  0  0  0  0  0  0  0  0
   -2.2504   -2.3093    7.0685 C   0  0  0  0  0  0  0  0  0  0  0  0
   -0.0160   -2.5609   -1.5415 N   0  0  0  0  0  0  0  0  0  0  0  0
    1.2953    5.8461    7.7646 O   0  0  0  0  0  0  0  0  0  0  0  0
    0.3737    5.0679    7.1495 C   0  0  0  0  0  0  0  0  0  0  0  0
  1  2  2  0
  1  4  1  0
  2  3  1  0
  2  7  1  0
  3  6  1  0
  3 11  2  0
  4  5  1  0
  4 26  1  0
  5  6  2  0
  5 19  1  0
  7  8  1  0
  7  9  2  0
  8 10  2  0
  8 21  1  0
 10 11  1  0
 10 12  1  0
 12 13  2  0
 12 14  1  0
 13 15  1  0
 14 16  2  0
 15 17  2  0
 16 17  1  0
 16 18  1  0
 18 20  1  0
 18 22  1  0
 20 28  1  0
 21 24  1  0
 22 23  1  0
 23 32  1  0
 24 25  1  0
 25 29  1  0
 26 27  1  0
 27 30  1  0
 28 31  1  0
 31 32  1  0
M  END

$$$$

     RDKit          3D

 32 34  0  0  0  0  0  0  0  0999 V2000
    0.0000    0.0000    0.0000 N   0  0  0  0  0  0  0  0  0  0  0  0
    0.0000    0.0000    1.3704 C   0  0  0  0  0  0  0  0  0  0  0  0
    1.1047    0.0000    2.1003 C   0  0  0  0  0  0  0  0  0  0  0  0
    1.2113    0.1797   -0.5613 C   0  0  0  0  0  0  0  0  0  0  0  0
    2.4139    0.2388    0.0597 C   0  0  0  0  0  0  0  0  0  0  0  0
    2.4241    0.1639    1.4123 C   0  0  0  0  0  0  0  0  0  0  0  0
    1.1530    0.0483    3.4379 O   0  0  0  0  0  0  0  0  0  0  0  0
   -1.2339    0.0000   -0.7951 C   0  0  0  0  0  0  0  0  0  0  0  0
   -1.7468   -1.4335   -0.9224 C   0  0  0  0  0  0  0  0  0  0  0  0
   -0.9598    0.6615   -2.0573 N   0  0  0  0  0  0  0  0  0  0  0  0
   -1.3196    2.1049   -2.1881 C   0  0  0  0  0  0  0  0  0  0  0  0
   -0.6519    2.5283   -3.4955 C   0  0  0  0  0  0  0  0  0  0  0  0
    0.6162    3.1530   -2.9635 C   0  0  0  0  0  0  0  0  0  0  0  0
    0.5346    3.3059   -1.7033 N   0  0  0  0  0  0  0  0  0  0  0  0
   -1.4678   -0.1278   -3.1097 O   0  0  0  0  0  0  0  0  0  0  0  0
    1.7773    3.4909   -3.7956 C   0  0  0  0  0  0  0  0  0  0  0  0
    1.6739    4.4974   -4.7314 C   0  0  0  0  0  0  0  0  0  0  0  0
    2.9769    2.7776   -3.6611 C   0  0  0  0  0  0  0  0  0  0  0  0
    2.7274    4.8182   -5.5733 C   0  0  0  0  0  0  0  0  0  0  0  0
    4.0766    3.0261   -4.4539 C   0  0  0  0  0  0  0  0  0  0  0  0
    3.9384    4.1309   -5.5051 C   0  0  0  0  0  0  0  0  0  0  0  0
   -0.8975    2.8022   -1.0670 O   0  0  0  0  0  0  0  0  0  0  0  0
    5.0097    4.3156   -6.3006 O   0  0  0  0  0  0  0  0  0  0  0  0
    3.0803    1.7880   -2.6961 O   0  0  0  0  0  0  0  0  0  0  0  0
    4.9253    5.3735   -7.2047 C   0  0  0  0  0  0  0  0  0  0  0  0
    5.2536    6.6562   -6.8515 C   0  0  0  0  0  0  0  0  0  0  0  0
    4.5166    5.0646   -8.5272 C   0  0  0  0  0  0  0  0  0  0  0  0
    5.2330    7.7361   -7.7330 C   0  0  0  0  0  0  0  0  0  0  0  0
    4.3964    6.1857   -9.4009 C   0  0  0  0  0  0  0  0  0  0  0  0
    4.2070    3.8503   -8.9779 N   0  0  0  0  0  0  0  0  0  0  0  0
    4.8622    7.5166   -9.0422 C   0  0  0  0  0  0  0  0  0  0  0  0
    4.0571    5.8443  -10.6425 O   0  0  0  0  0  0  0  0  0  0  0  0
  1  2  1  0
  1  4  1  0
  1  8  1  0
  2  3  2  0
  3  6  1  0
  3  7  1  0
  4  5  2  0
  5  6  2  0
  8  9  1  0
  8 10  1  0
 10 11  1  0
 10 15  1  0
 11 12  1  0
 11 22  1  0
 12 13  1  0
 13 14  2  0
 13 16  1  0
 16 17  2  0
 16 18  1  0
 17 19  2  0
 18 20  2  0
 18 24  1  0
 19 21  1  0
 20 21  1  0
 21 23  1  0
 23 25  1  0
 25 26  2  0
 25 27  1  0
 26 28  1  0
 27 29  2  0
 27 30  1  0
 28 31  2  0
 29 31  1  0
 29 32  1  0
M  END

$$$$

     RDKit          3D

 15 16  0  0  0  0  0  0  0  0999 V2000
    0.0000    0.0000    0.0000 C   0  0  0  0  0  0  0  0  0  0  0  0
    0.0000    0.0000    1.4102 C   0  0  0  0  0  0  0  0  0  0  0  0
    1.2015    0.0000    2.0692 C   0  0  0  0  0  0  0  0  0  0  0  0
    1.1922    0.0586   -0.6891 C   0  0  0  0  0  0  0  0  0  0  0  0
    2.3626    0.1161    0.0660 C   0  0  0  0  0  0  0  0  0  0  0  0
    2.4295    0.1194    1.4746 N   0  0  0  0  0  0  0  0  0  0  0  0
    3.5946    0.1242   -0.4192 N   0  0  0  0  0  0  0  0  0  0  0  0
    3.7380    0.1290    1.9073 C   0  0  0  0  0  0  0  0  0  0  0  0
    4.3332    0.1341    0.6889 C   0  0  0  0  0  0  0  0  0  0  0  0
    1.1538   -0.0478    3.3915 F   0  0  0  0  0  0  0  0  0  0  0  0
    4.3779    0.0791    3.2087 C   0  0  0  0  0  0  0  0  0  0  0  0
    3.8225    0.0707    4.2584 O   0  0  0  0  0  0  0  0  0  0  0  0
   -1.1585   -0.0569    2.0798 F   0  0  0  0  0  0  0  0  0  0  0  0
    5.7324    0.0571    3.2261 O   0  0  0  0  0  0  0  0  0  0  0  0
   -1.1519   -0.0566   -0.6658 F   0  0  0  0  0  0  0  0  0  0  0  0
  1  2  1  0
  1  4  2  0
  1 15  1  0
  2  3  2  0
  2 13  1  0
  3  6  1  0
  3 10  1  0
  4  5  1  0
  5  6  1  0
  5  7  2  0
  6  8  1  0
  7  9  1  0
  8  9  2  0
  8 11  1  0
 11 12  2  0
 11 14  1  0
M  END

$$$$

     RDKit          3D

 27 28  0  0  0  0  0  0  0  0999 V2000
    0.0000    0.0000    0.0000 C   0  0  0  0  0  0  0  0  0  0  0  0
    0.0000    0.0000    1.4264 C   0  0  0  0  0  0  0  0  0  0  0  0
    1.2509    0.0000    2.0599 C   0  0  0  0  0  0  0  0  0  0  0  0
    1.1453    0.0000   -0.7380 N   0  0  0  0  0  0  0  0  0  0  0  0
    2.3039    0.0569   -0.0684 C   0  0  0  0  0  0  0  0  0  0  0  0
    2.4387    0.1168    1.3341 C   0  0  0  0  0  0  0  0  0  0  0  0
    3.6766    0.1246    1.9925 C   0  0  0  0  0  0  0  0  0  0  0  0
    4.7827    0.1202    2.3215 N   0  0  0  0  0  0  0  0  0  0  0  0
   -1.1258    0.0000   -0.7255 N   0  0  0  0  0  0  0  0  0  0  0  0
   -1.1922   -0.0586    2.1155 C   0  0  0  0  0  0  0  0  0  0  0  0
   -1.2448   -0.0108    3.5078 C   0  0  0  0  0  0  0  0  0  0  0  0
   -0.0262    0.1616    4.2125 C   0  0  0  0  0  0  0  0  0  0  0  0
    1.1393    0.1611    3.5218 C   0  0  0  0  0  0  0  0  0  0  0  0
   -2.4636   -0.0231    4.1512 N   0  0  0  0  0  0  0  0  0  0  0  0
   -2.4646   -0.0241    5.5940 C   0  0  0  0  0  0  0  0  0  0  0  0
   -2.2595    1.4041    6.1477 C   0  0  0  0  0  0  0  0  0  0  0  0
   -1.1830   -0.2874   -2.1383 C   0  0  0  0  0  0  0  0  0  0  0  0
   -2.4058   -0.3883   -0.1844 C   0  0  0  0  0  0  0  0  0  0  0  0
   -2.5724   -1.9044   -0.5271 C   0  0  0  0  0  0  0  0  0  0  0  0
   -1.3315   -2.5338   -0.9090 N   0  0  0  0  0  0  0  0  0  0  0  0
   -3.5196   -0.8868    3.6565 C   0  0  0  0  0  0  0  0  0  0  0  0
   -0.9906   -2.5034   -2.2938 C   0  0  0  0  0  0  0  0  0  0  0  0
   -0.1525   -3.3968   -2.8352 C   0  0  0  0  0  0  0  0  0  0  0  0
   -1.5934   -1.5571   -3.1481 N   0  0  0  0  0  0  0  0  0  0  0  0
    0.1249   -3.4951   -4.2818 C   0  0  0  0  0  0  0  0  0  0  0  0
    0.1084   -2.5957   -5.0572 O   0  0  0  0  0  0  0  0  0  0  0  0
    0.4081   -4.7888   -4.6912 O   0  0  0  0  0  0  0  0  0  0  0  0
  1  2  2  0
  1  4  1  0
  1  9  1  0
  2  3  1  0
  2 10  1  0
  3  6  2  0
  3 13  1  0
  4  5  2  0
  5  6  1  0
  6  7  1  0
  7  8  3  0
  9 17  1  0
  9 18  1  0
 10 11  2  0
 11 12  1  0
 11 14  1  0
 12 13  2  0
 14 15  1  0
 14 21  1  0
 15 16  1  0
 18 19  1  0
 19 20  1  0
 20 22  1  0
 22 23  2  3
 22 24  1  0
 23 25  1  0
 25 26  2  0
 25 27  1  0
M  END

$$$$

     RDKit          3D

 30 33  0  0  0  0  0  0  0  0999 V2000
    0.0000    0.0000    0.0000 N   0  0  0  0  0  0  0  0  0  0  0  0
    0.0000    0.0000    1.3625 C   0  0  0  0  0  0  0  0  0  0  0  0
    1.1689    0.0000    2.1076 C   0  0  0  0  0  0  0  0  0  0  0  0
    1.1779   -0.1160   -0.6104 C   0  0  0  0  0  0  0  0  0  0  0  0
    2.4047   -0.1763    0.0988 C   0  0  0  0  0  0  0  0  0  0  0  0
    2.4099   -0.1161    1.4445 C   0  0  0  0  0  0  0  0  0  0  0  0
   -1.2559    0.0000    1.8706 N   0  0  0  0  0  0  0  0  0  0  0  0
   -1.4467   -0.0511    3.1495 C   0  0  0  0  0  0  0  0  0  0  0  0
   -0.3788   -0.0473    3.9831 N   0  0  0  0  0  0  0  0  0  0  0  0
    0.9678   -0.0542    3.5926 C   0  0  0  0  0  0  0  0  0  0  0  0
    1.8454   -0.0028    4.4215 O   0  0  0  0  0  0  0  0  0  0  0  0
    1.2222   -0.1701   -1.9789 N   0  0  0  0  0  0  0  0  0  0  0  0
    0.3309   -0.2729   -3.0459 C   0  0  0  0  0  0  0  0  0  0  0  0
    0.7119   -0.4343   -4.1737 O   0  0  0  0  0  0  0  0  0  0  0  0
   -1.1101   -0.2107   -2.6590 C   0  0  0  0  0  0  0  0  0  0  0  0
   -2.8746   -0.1034    3.6654 C   0  0  0  0  0  0  0  0  0  0  0  0
   -3.5438   -1.3632    3.8176 N   0  0  0  0  0  0  0  0  0  0  0  0
   -3.9616   -2.0225    2.5943 C   0  0  0  0  0  0  0  0  0  0  0  0
   -2.8645   -2.8993    1.9708 C   0  0  0  0  0  0  0  0  0  0  0  0
   -2.9093   -2.2934    4.7592 C   0  0  0  0  0  0  0  0  0  0  0  0
   -2.3149   -3.9445    2.9540 C   0  0  0  0  0  0  0  0  0  0  0  0
   -1.8324   -3.2388    4.2309 C   0  0  0  0  0  0  0  0  0  0  0  0
   -1.3114   -4.9071    2.5390 N   0  0  0  0  0  0  0  0  0  0  0  0
   -0.2681   -4.3707    1.6707 C   0  0  0  0  0  0  0  0  0  0  0  0
   -0.5382   -4.3911    0.1847 C   0  0  0  0  0  0  0  0  0  0  0  0
   -1.5020   -5.2940   -0.2618 C   0  0  0  0  0  0  0  0  0  0  0  0
    0.1552   -3.5861   -0.7056 C   0  0  0  0  0  0  0  0  0  0  0  0
   -1.6830   -5.3120   -1.6602 C   0  0  0  0  0  0  0  0  0  0  0  0
   -0.0227   -3.6059   -2.0802 C   0  0  0  0  0  0  0  0  0  0  0  0
   -0.9541   -4.5677   -2.5746 C   0  0  0  0  0  0  0  0  0  0  0  0
  1  2  2  0
  1  4  1  0
  2  3  1  0
  2  7  1  0
  3  6  2  0
  3 10  1  0
  4  5  2  0
  4 12  1  0
  5  6  1  0
  7  8  2  0
  8  9  1  0
  8 16  1  0
  9 10  1  0
 10 11  2  0
 12 13  1  0
 13 14  2  0
 13 15  1  0
 16 17  1  0
 17 18  1  0
 17 20  1  0
 18 19  1  0
 19 21  1  0
 20 22  1  0
 21 22  1  0
 21 23  1  0
 23 24  1  0
 24 25  1  0
 25 26  2  0
 25 27  1  0
 26 28  1  0
 27 29  2  0
 28 30  2  0
 29 30  1  0
M  END

$$$$

     RDKit          3D

  9  9  0  0  0  0  0  0  0  0999 V2000
    0.0000    0.0000    0.0000 C   0  0  0  0  0  0  0  0  0  0  0  0
    0.0000    0.0000    1.2794 N   0  0  0  0  0  0  0  0  0  0  0  0
    1.1676    0.0000    1.9198 C   0  0  0  0  0  0  0  0  0  0  0  0
    1.1201   -0.1661   -0.8132 C   0  0  0  0  0  0  0  0  0  0  0  0
    2.3148   -0.2838   -0.1202 C   0  0  0  0  0  0  0  0  0  0  0  0
    2.3282   -0.1719    1.3266 C   0  0  0  0  0  0  0  0  0  0  0  0
    3.4245   -0.4955   -0.8679 N   0  0  0  0  0  0  0  0  0  0  0  0
    4.5969   -1.1015   -0.3055 C   0  0  0  0  0  0  0  0  0  0  0  0
    3.8842    0.1282    2.4126 Br  0  0  0  0  0  0  0  0  0  0  0  0
  1  2  2  0
  1  4  1  0
  2  3  1  0
  3  6  2  0
  4  5  2  0
  5  6  1  0
  5  7  1  0
  6  9  1  0
  7  8  1  0
M  END

$$$$

     RDKit          3D

 30 33  0  0  0  0  0  0  0  0999 V2000
    0.0000    0.0000    0.0000 C   0  0  0  0  0  0  0  0  0  0  0  0
    0.0000    0.0000    1.4021 C   0  0  0  0  0  0  0  0  0  0  0  0
    1.1974    0.0000    2.0847 C   0  0  0  0  0  0  0  0  0  0  0  0
    1.1440   -0.0562   -0.8226 N   0  0  0  0  0  0  0  0  0  0  0  0
    2.2513   -0.2205   -0.1013 C   0  0  0  0  0  0  0  0  0  0  0  0
    2.3895   -0.2760    1.3173 C   0  0  0  0  0  0  0  0  0  0  0  0
    3.4900   -0.3638   -0.5901 N   0  0  0  0  0  0  0  0  0  0  0  0
    3.7605   -0.4078    1.6201 C   0  0  0  0  0  0  0  0  0  0  0  0
    4.3457   -0.4520    0.4465 N   0  0  0  0  0  0  0  0  0  0  0  0
   -1.2605    0.0000   -0.6500 C   0  0  0  0  0  0  0  0  0  0  0  0
   -2.3024   -0.0512   -1.1282 N   0  0  0  0  0  0  0  0  0  0  0  0
    1.2560    0.2189    3.5520 C   0  0  0  0  0  0  0  0  0  0  0  0
    1.2102    0.1499   -2.2242 C   0  0  0  0  0  0  0  0  0  0  0  0
    1.8319   -0.7690   -3.1078 C   0  0  0  0  0  0  0  0  0  0  0  0
    0.5162    1.2311   -2.7655 C   0  0  0  0  0  0  0  0  0  0  0  0
    1.9638   -0.5881   -4.4677 C   0  0  0  0  0  0  0  0  0  0  0  0
    0.6514    1.4222   -4.1398 C   0  0  0  0  0  0  0  0  0  0  0  0
    1.4471    0.5901   -5.0251 C   0  0  0  0  0  0  0  0  0  0  0  0
   -0.2757    2.0909   -2.1118 O   0  0  0  0  0  0  0  0  0  0  0  0
    2.2907   -1.8665   -2.4432 O   0  0  0  0  0  0  0  0  0  0  0  0
    2.7881   -2.9135   -3.2033 C   0  0  0  0  0  0  0  0  0  0  0  0
    1.9558   -3.7266   -3.9712 C   0  0  0  0  0  0  0  0  0  0  0  0
    4.1214   -3.2090   -3.0899 C   0  0  0  0  0  0  0  0  0  0  0  0
    2.4962   -4.7985   -4.6801 C   0  0  0  0  0  0  0  0  0  0  0  0
    4.6565   -4.2849   -3.7967 C   0  0  0  0  0  0  0  0  0  0  0  0
    3.8636   -5.0038   -4.5816 C   0  0  0  0  0  0  0  0  0  0  0  0
    0.6601   -3.3345   -3.9179 O   0  0  0  0  0  0  0  0  0  0  0  0
    1.8118    0.4778   -6.4688 C   0  0  0  0  0  0  0  0  0  0  0  0
   -0.2794   -4.0506   -4.7029 C   0  0  0  0  0  0  0  0  0  0  0  0
   -1.6296   -3.4427   -4.4047 C   0  0  0  0  0  0  0  0  0  0  0  0
  1  2  2  0
  1  4  1  0
  1 10  1  0
  2  3  1  0
  3  6  2  0
  3 12  1  0
  4  5  1  0
  4 13  1  0
  5  6  1  0
  5  7  2  0
  6  8  1  0
  7  9  1  0
  8  9  2  0
 10 11  3  0
 13 14  1  0
 13 15  2  0
 14 16  2  0
 14 20  1  0
 15 17  1  0
 15 19  1  0
 16 18  1  0
 17 18  2  0
 18 28  1  0
 20 21  1  0
 21 22  2  0
 21 23  1  0
 22 24  1  0
 22 27  1  0
 23 25  2  0
 24 26  2  0
 25 26  1  0
 27 29  1  0
 29 30  1  0
M  END

$$$$

     RDKit          3D

 21 23  0  0  0  0  0  0  0  0999 V2000
    0.0000    0.0000    0.0000 C   0  0  0  0  0  0  0  0  0  0  0  0
    0.0000    0.0000    1.4346 C   0  0  0  0  0  0  0  0  0  0  0  0
    1.2618    0.0000    2.0999 C   0  0  0  0  0  0  0  0  0  0  0  0
    1.2402   -0.1221   -0.6426 C   0  0  0  0  0  0  0  0  0  0  0  0
    2.4040   -0.1793    0.1942 C   0  0  0  0  0  0  0  0  0  0  0  0
    2.4086   -0.1272    1.5097 N   0  0  0  0  0  0  0  0  0  0  0  0
   -1.1572   -0.0568    2.2667 C   0  0  0  0  0  0  0  0  0  0  0  0
   -1.1148    0.1396    3.5678 N   0  0  0  0  0  0  0  0  0  0  0  0
    0.0406    0.3524    4.2269 C   0  0  0  0  0  0  0  0  0  0  0  0
    1.2877    0.1251    3.5552 C   0  0  0  0  0  0  0  0  0  0  0  0
    0.0096    0.7598    5.5766 C   0  0  0  0  0  0  0  0  0  0  0  0
    2.4468    0.1627    4.3432 C   0  0  0  0  0  0  0  0  0  0  0  0
    1.1528    0.8646    6.3249 C   0  0  0  0  0  0  0  0  0  0  0  0
    2.4332    0.4590    5.6811 C   0  0  0  0  0  0  0  0  0  0  0  0
   -2.4037   -0.3691    1.7469 N   0  0  0  0  0  0  0  0  0  0  0  0
   -1.0947    0.1624   -0.7948 N   0  0  0  0  0  0  0  0  0  0  0  0
   -2.2497    0.9341   -0.4362 C   0  0  0  0  0  0  0  0  0  0  0  0
    1.4066    0.0144   -2.0363 C   0  0  0  0  0  0  0  0  0  0  0  0
    1.5954    0.1612   -3.1519 N   0  0  0  0  0  0  0  0  0  0  0  0
    3.6036   -0.4224   -0.3683 N   0  0  0  0  0  0  0  0  0  0  0  0
    4.8025   -0.4383    0.4194 C   0  0  0  0  0  0  0  0  0  0  0  0
  1  2  2  0
  1  4  1  0
  1 16  1  0
  2  3  1  0
  2  7  1  0
  3  6  2  0
  3 10  1  0
  4  5  2  0
  4 18  1  0
  5  6  1  0
  5 20  1  0
  7  8  2  0
  7 15  1  0
  8  9  1  0
  9 10  2  0
  9 11  1  0
 10 12  1  0
 11 13  2  0
 12 14  2  0
 13 14  1  0
 16 17  1  0
 18 19  3  0
 20 21  1  0
M  END

$$$$

     RDKit          3D

 21 22  0  0  0  0  0  0  0  0999 V2000
    0.0000    0.0000    0.0000 C   0  0  0  0  0  0  0  0  0  0  0  0
    0.0000    0.0000    1.3165 C   0  0  0  0  0  0  0  0  0  0  0  0
    1.3561    0.0000    1.9212 C   0  0  0  0  0  0  0  0  0  0  0  0
    1.1375    0.0559   -0.8179 N   0  0  0  0  0  0  0  0  0  0  0  0
    2.3139    0.0559   -0.2787 C   0  0  0  0  0  0  0  0  0  0  0  0
    2.4552    0.0600    1.1407 C   0  0  0  0  0  0  0  0  0  0  0  0
    3.5237    0.0066    2.0096 N   0  0  0  0  0  0  0  0  0  0  0  0
    3.0386   -0.0080    3.2828 C   0  0  0  0  0  0  0  0  0  0  0  0
    1.6525   -0.0171    3.2719 N   0  0  0  0  0  0  0  0  0  0  0  0
    3.8726   -0.0021    4.7018 S   0  0  0  0  0  0  0  0  0  0  0  0
    3.8263    0.0533   -1.1649 S   0  0  0  0  0  0  0  0  0  0  0  0
    0.7537   -0.0905    4.4087 C   0  0  0  0  0  0  0  0  0  0  0  0
    3.3804    0.1904   -2.9288 C   0  0  0  0  0  0  0  0  0  0  0  0
    1.1184    0.9417    5.4620 C   0  0  0  0  0  0  0  0  0  0  0  0
    3.6295    1.5720   -3.5094 C   0  0  0  0  0  0  0  0  0  0  0  0
    2.7196    2.6439   -2.9341 C   0  0  0  0  0  0  0  0  0  0  0  0
    0.6953   -1.5415    4.9112 C   0  0  0  0  0  0  0  0  0  0  0  0
    0.0596   -2.3874    3.9790 O   0  0  0  0  0  0  0  0  0  0  0  0
    0.9517   -2.9456    3.0160 C   0  0  0  0  0  0  0  0  0  0  0  0
    0.0811   -3.1397    1.7755 C   0  0  0  0  0  0  0  0  0  0  0  0
    1.5770   -4.2365    3.5672 C   0  0  0  0  0  0  0  0  0  0  0  0
  1  2  2  0
  1  4  1  0
  2  3  1  0
  3  6  2  0
  3  9  1  0
  4  5  2  0
  5  6  1  0
  5 11  1  0
  6  7  1  0
  7  8  2  0
  8  9  1  0
  8 10  1  0
  9 12  1  0
 11 13  1  0
 12 14  1  0
 12 17  1  0
 13 15  1  0
 15 16  1  0
 17 18  1  0
 18 19  1  0
 19 20  1  0
 19 21  1  0
M  END

$$$$

     RDKit          3D

 21 22  0  0  0  0  0  0  0  0999 V2000
    0.0000    0.0000    0.0000 C   0  0  0  0  0  0  0  0  0  0  0  0
    0.0000    0.0000    1.3782 C   0  0  0  0  0  0  0  0  0  0  0  0
    1.2332    0.0000    2.0285 C   0  0  0  0  0  0  0  0  0  0  0  0
    1.3026    0.0640   -0.5978 C   0  0  0  0  0  0  0  0  0  0  0  0
    2.5191    0.1238    0.0303 N   0  0  0  0  0  0  0  0  0  0  0  0
    2.3989   -0.0496    1.3299 C   0  0  0  0  0  0  0  0  0  0  0  0
    3.5574   -0.0634    2.0618 N   0  0  0  0  0  0  0  0  0  0  0  0
   -1.2045    0.0592    2.2443 C   0  0  0  0  0  0  0  0  0  0  0  0
   -1.0515    0.0000   -0.8419 O   0  0  0  0  0  0  0  0  0  0  0  0
   -2.3821   -0.2647   -0.4282 C   0  0  0  0  0  0  0  0  0  0  0  0
    4.8885   -0.3223    1.7384 C   0  0  0  0  0  0  0  0  0  0  0  0
    5.7644   -0.4162    2.5653 O   0  0  0  0  0  0  0  0  0  0  0  0
   -2.5727   -1.6797    0.0090 C   0  0  0  0  0  0  0  0  0  0  0  0
   -3.0554   -2.7552   -0.6743 C   0  0  0  0  0  0  0  0  0  0  0  0
   -2.2295   -2.0592    1.2551 O   0  0  0  0  0  0  0  0  0  0  0  0
   -2.9420   -3.8171    0.2466 C   0  0  0  0  0  0  0  0  0  0  0  0
   -2.4443   -3.3597    1.3804 C   0  0  0  0  0  0  0  0  0  0  0  0
    1.3529    0.0184   -1.9277 N   0  0  0  0  0  0  0  0  0  0  0  0
    2.4647    0.0263   -2.4842 O   0  0  0  0  0  0  0  0  0  0  0  0
    5.0628   -0.4392    0.4156 N   0  0  0  0  0  0  0  0  0  0  0  0
    6.3559   -0.7624   -0.1151 C   0  0  0  0  0  0  0  0  0  0  0  0
  1  2  2  0
  1  4  1  0
  1  9  1  0
  2  3  1  0
  2  8  1  0
  3  6  2  0
  4  5  2  0
  4 18  1  0
  5  6  1  0
  6  7  1  0
  7 11  1  0
  9 10  1  0
 10 13  1  0
 11 12  2  0
 11 20  1  0
 13 14  2  0
 13 15  1  0
 14 16  1  0
 15 17  1  0
 16 17  2  0
 18 19  2  0
 20 21  1  0
M  END

$$$$

     RDKit          3D

 30 32  0  0  0  0  0  0  0  0999 V2000
    0.0000    0.0000    0.0000 N   0  0  0  0  0  0  0  0  0  0  0  0
    0.0000    0.0000    1.3782 C   0  0  0  0  0  0  0  0  0  0  0  0
    1.1367    0.0000    2.2127 C   0  0  0  0  0  0  0  0  0  0  0  0
    1.2559    0.0000   -0.5080 C   0  0  0  0  0  0  0  0  0  0  0  0
    2.4211   -0.0572    0.1655 C   0  0  0  0  0  0  0  0  0  0  0  0
    2.3567   -0.0634    1.5823 C   0  0  0  0  0  0  0  0  0  0  0  0
   -1.0883    0.0000    2.2496 C   0  0  0  0  0  0  0  0  0  0  0  0
   -0.6069    0.0542    3.5399 C   0  0  0  0  0  0  0  0  0  0  0  0
    0.7323    0.0383    3.5412 N   0  0  0  0  0  0  0  0  0  0  0  0
    3.5699   -0.1724    2.2271 N   0  0  0  0  0  0  0  0  0  0  0  0
    3.4937    0.3373    3.6015 C   0  0  0  0  0  0  0  0  0  0  0  0
   -1.1840    0.0582   -0.8514 C   0  0  0  0  0  0  0  0  0  0  0  0
   -1.4451   -1.2545   -1.6241 C   0  0  0  0  0  0  0  0  0  0  0  0
   -2.5104   -1.7636   -1.6085 O   0  0  0  0  0  0  0  0  0  0  0  0
    4.8197   -0.2732    1.4966 C   0  0  0  0  0  0  0  0  0  0  0  0
    3.1787    1.8141    3.6368 C   0  0  0  0  0  0  0  0  0  0  0  0
    1.9651    2.3385    4.0536 C   0  0  0  0  0  0  0  0  0  0  0  0
    4.0979    2.7077    3.1096 C   0  0  0  0  0  0  0  0  0  0  0  0
    1.6805    3.6988    3.9440 C   0  0  0  0  0  0  0  0  0  0  0  0
    3.8322    4.0597    3.0750 C   0  0  0  0  0  0  0  0  0  0  0  0
    2.6775    4.6224    3.5108 C   0  0  0  0  0  0  0  0  0  0  0  0
   -1.0776    1.0663   -1.9828 C   0  0  0  0  0  0  0  0  0  0  0  0
    2.4872    5.9716    3.5097 N   0  0  0  0  0  0  0  0  0  0  0  0
   -0.4415   -1.7467   -2.3054 O   0  0  0  0  0  0  0  0  0  0  0  0
    0.4231    4.0168    4.1700 O   0  0  0  0  0  0  0  0  0  0  0  0
    1.8308    6.7093    4.5617 C   0  0  0  0  0  0  0  0  0  0  0  0
    3.3794    6.8232    2.7294 C   0  0  0  0  0  0  0  0  0  0  0  0
    2.8862    7.2492    5.5532 C   0  0  0  0  0  0  0  0  0  0  0  0
    4.5053    7.4353    3.5773 C   0  0  0  0  0  0  0  0  0  0  0  0
    3.8337    8.0095    4.9023 O   0  0  0  0  0  0  0  0  0  0  0  0
  1  2  1  0
  1  4  1  0
  1 12  1  0
  2  3  1  0
  2  7  2  0
  3  6  2  0
  3  9  1  0
  4  5  2  0
  5  6  1  0
  6 10  1  0
  7  8  1  0
  8  9  2  0
 10 11  1  0
 10 15  1  0
 11 16  1  0
 12 13  1  0
 12 22  1  0
 13 14  2  0
 13 24  1  0
 16 17  2  0
 16 18  1  0
 17 19  1  0
 18 20  2  0
 19 21  2  0
 19 25  1  0
 20 21  1  0
 21 23  1  0
 23 26  1  0
 23 27  1  0
 26 28  1  0
 27 29  1  0
 28 30  1  0
M  END

$$$$

     RDKit          3D

 31 34  0  0  0  0  0  0  0  0999 V2000
    0.0000    0.0000    0.0000 C   0  0  0  0  0  0  0  0  0  0  0  0
    0.0000    0.0000    1.4763 C   0  0  0  0  0  0  0  0  0  0  0  0
    1.1479    0.0000    2.0576 C   0  0  0  0  0  0  0  0  0  0  0  0
    1.1519   -0.0566   -0.6658 C   0  0  0  0  0  0  0  0  0  0  0  0
    2.3564    0.0026    0.1112 C   0  0  0  0  0  0  0  0  0  0  0  0
    2.4091   -0.1200    1.4059 N   0  0  0  0  0  0  0  0  0  0  0  0
    1.2854    0.0569    3.5095 C   0  0  0  0  0  0  0  0  0  0  0  0
    2.3746   -0.1243    4.0166 O   0  0  0  0  0  0  0  0  0  0  0  0
   -1.3793    0.0678   -0.6330 C   0  0  0  0  0  0  0  0  0  0  0  0
    3.5351    0.1476   -0.5244 N   0  0  0  0  0  0  0  0  0  0  0  0
   -2.3043    0.9927    0.1223 C   0  0  0  0  0  0  0  0  0  0  0  0
   -1.9564    2.3171    0.3375 C   0  0  0  0  0  0  0  0  0  0  0  0
   -3.5255    0.5274    0.6303 C   0  0  0  0  0  0  0  0  0  0  0  0
   -2.7537    3.1945    1.0711 C   0  0  0  0  0  0  0  0  0  0  0  0
   -4.3443    1.4048    1.2589 C   0  0  0  0  0  0  0  0  0  0  0  0
   -3.9359    2.7209    1.5333 C   0  0  0  0  0  0  0  0  0  0  0  0
   -0.1627    3.1164   -0.3527 I   0  0  0  0  0  0  0  0  0  0  0  0
   -4.9421    3.3184    2.2158 O   0  0  0  0  0  0  0  0  0  0  0  0
   -0.0014    0.3618    4.2394 C   0  0  0  0  0  0  0  0  0  0  0  0
   -1.2975    0.5174   -2.0726 C   0  0  0  0  0  0  0  0  0  0  0  0
   -1.7429   -0.2659   -3.1156 C   0  0  0  0  0  0  0  0  0  0  0  0
   -0.7744    1.7622   -2.3861 C   0  0  0  0  0  0  0  0  0  0  0  0
   -1.6009    0.1711   -4.4318 C   0  0  0  0  0  0  0  0  0  0  0  0
   -0.6336    2.1975   -3.6946 C   0  0  0  0  0  0  0  0  0  0  0  0
   -1.0083    1.4081   -4.7597 C   0  0  0  0  0  0  0  0  0  0  0  0
   -0.9111    1.6349   -6.0839 O   0  0  0  0  0  0  0  0  0  0  0  0
   -1.9837   -0.5942   -5.5021 O   0  0  0  0  0  0  0  0  0  0  0  0
   -1.1930   -0.3296    3.6201 C   0  0  0  0  0  0  0  0  0  0  0  0
   -1.3166    0.1181    2.1554 C   0  0  0  0  0  0  0  0  0  0  0  0
   -0.1710    3.4293   -4.0486 O   0  0  0  0  0  0  0  0  0  0  0  0
   -2.5882   -1.8309   -5.2353 C   0  0  0  0  0  0  0  0  0  0  0  0
  1  2  1  0
  1  4  2  0
  1  9  1  0
  2  3  2  0
  2 29  1  0
  3  6  1  0
  3  7  1  0
  4  5  1  0
  5  6  2  0
  5 10  1  0
  7  8  2  0
  7 19  1  0
  9 11  1  0
  9 20  1  0
 11 12  2  0
 11 13  1  0
 12 14  1  0
 12 17  1  0
 13 15  2  0
 14 16  2  0
 15 16  1  0
 16 18  1  0
 19 28  1  0
 20 21  2  0
 20 22  1  0
 21 23  1  0
 22 24  2  0
 23 25  2  0
 23 27  1  0
 24 25  1  0
 24 30  1  0
 25 26  1  0
 27 31  1  0
 28 29  1  0
M  END

$$$$

     RDKit          3D

 31 34  0  0  0  0  0  0  0  0999 V2000
    0.0000    0.0000    0.0000 N   0  0  0  0  0  0  0  0  0  0  0  0
    0.0000    0.0000    1.3393 C   0  0  0  0  0  0  0  0  0  0  0  0
    1.1837    0.0000    2.0141 C   0  0  0  0  0  0  0  0  0  0  0  0
    1.1645   -0.1147   -0.6034 C   0  0  0  0  0  0  0  0  0  0  0  0
    2.3573   -0.1147   -0.1209 C   0  0  0  0  0  0  0  0  0  0  0  0
    2.3598   -0.0884    1.2650 C   0  0  0  0  0  0  0  0  0  0  0  0
    1.0188   -0.1589   -2.0889 N   0  0  0  0  0  0  0  0  0  0  0  0
    3.4687   -0.1357    2.0008 N   0  0  0  0  0  0  0  0  0  0  0  0
    0.3136   -1.4049   -2.4123 C   0  0  0  0  0  0  0  0  0  0  0  0
   -1.0321   -1.5253   -2.1026 C   0  0  0  0  0  0  0  0  0  0  0  0
    1.0394   -2.4730   -2.9162 C   0  0  0  0  0  0  0  0  0  0  0  0
   -1.6607   -2.7515   -2.1327 C   0  0  0  0  0  0  0  0  0  0  0  0
    0.4784   -3.7393   -2.9746 C   0  0  0  0  0  0  0  0  0  0  0  0
   -0.8582   -3.8537   -2.4927 C   0  0  0  0  0  0  0  0  0  0  0  0
   -1.3511   -5.0888   -2.2781 O   0  0  0  0  0  0  0  0  0  0  0  0
   -2.3910   -5.1768   -1.3177 C   0  0  0  0  0  0  0  0  0  0  0  0
    2.9044   -0.2486    3.3420 C   0  0  0  0  0  0  0  0  0  0  0  0
   -3.0389   -2.9695   -1.6006 C   0  0  0  0  0  0  0  0  0  0  0  0
    3.5806   -0.0953   -0.9471 N   0  0  0  0  0  0  0  0  0  0  0  0
    1.3678   -0.0923    3.3954 C   0  0  0  0  0  0  0  0  0  0  0  0
    0.4993   -0.1544    4.2230 O   0  0  0  0  0  0  0  0  0  0  0  0
   -2.9274   -3.2764   -0.1170 C   0  0  0  0  0  0  0  0  0  0  0  0
   -2.5616   -2.2559    0.7595 C   0  0  0  0  0  0  0  0  0  0  0  0
   -3.0942   -4.5577    0.3850 C   0  0  0  0  0  0  0  0  0  0  0  0
   -2.3999   -2.4988    2.1065 C   0  0  0  0  0  0  0  0  0  0  0  0
   -2.9342   -4.7977    1.7409 C   0  0  0  0  0  0  0  0  0  0  0  0
   -2.5948   -3.7756    2.6522 C   0  0  0  0  0  0  0  0  0  0  0  0
    3.2805   -1.5894    3.9491 C   0  0  0  0  0  0  0  0  0  0  0  0
    2.2739   -2.3595    4.4493 C   0  0  0  0  0  0  0  0  0  0  0  0
    2.4986   -3.7131    5.0166 C   0  0  0  0  0  0  0  0  0  0  0  0
   -2.3811   -3.9740    3.9516 O   0  0  0  0  0  0  0  0  0  0  0  0
  1  2  2  0
  1  4  1  0
  2  3  1  0
  3  6  2  0
  3 20  1  0
  4  5  2  0
  4  7  1  0
  5  6  1  0
  5 19  1  0
  6  8  1  0
  7  9  1  0
  8 17  1  0
  9 10  2  0
  9 11  1  0
 10 12  1  0
 11 13  2  0
 12 14  2  0
 12 18  1  0
 13 14  1  0
 14 15  1  0
 15 16  1  0
 17 20  1  0
 17 28  1  0
 18 22  1  0
 20 21  2  0
 22 23  2  0
 22 24  1  0
 23 25  1  0
 24 26  2  0
 25 27  2  0
 26 27  1  0
 27 31  1  0
 28 29  2  3
 29 30  1  0
M  END

$$$$

     RDKit          3D

 32 33  0  0  0  0  0  0  0  0999 V2000
    0.0000    0.0000    0.0000 N   0  0  0  0  0  0  0  0  0  0  0  0
    0.0000    0.0000    1.3782 C   0  0  0  0  0  0  0  0  0  0  0  0
    1.2293    0.0000    2.1336 C   0  0  0  0  0  0  0  0  0  0  0  0
    1.2052    0.1187   -0.6245 C   0  0  0  0  0  0  0  0  0  0  0  0
    2.4821    0.1814    0.1136 C   0  0  0  0  0  0  0  0  0  0  0  0
    2.4933    0.0064    1.4337 C   0  0  0  0  0  0  0  0  0  0  0  0
   -1.0499   -0.0516    2.1331 N   0  0  0  0  0  0  0  0  0  0  0  0
   -0.5091   -0.0781    3.3750 N   0  0  0  0  0  0  0  0  0  0  0  0
    0.8567    0.0064    3.4480 C   0  0  0  0  0  0  0  0  0  0  0  0
   -1.2502   -0.1855   -0.7297 C   0  0  0  0  0  0  0  0  0  0  0  0
   -2.1040    1.0922   -0.7297 C   0  0  0  0  0  0  0  0  0  0  0  0
    1.2452    0.1674   -1.8591 O   0  0  0  0  0  0  0  0  0  0  0  0
   -1.3960   -0.0807    4.4403 C   0  0  0  0  0  0  0  0  0  0  0  0
   -0.9612   -0.2177    5.5591 O   0  0  0  0  0  0  0  0  0  0  0  0
   -2.8409    0.1236    4.1236 C   0  0  0  0  0  0  0  0  0  0  0  0
   -2.0988   -1.3296   -0.1535 C   0  0  0  0  0  0  0  0  0  0  0  0
   -3.2960   -1.2812   -0.0668 O   0  0  0  0  0  0  0  0  0  0  0  0
   -3.0525    1.1529   -1.9371 C   0  0  0  0  0  0  0  0  0  0  0  0
   -1.3301   -2.3800    0.1281 O   0  0  0  0  0  0  0  0  0  0  0  0
   -1.9550   -3.5891    0.6315 C   0  0  0  0  0  0  0  0  0  0  0  0
   -2.2849    1.5897   -3.1731 C   0  0  0  0  0  0  0  0  0  0  0  0
   -2.1932    1.0324   -4.2178 O   0  0  0  0  0  0  0  0  0  0  0  0
   -2.7211   -4.2949   -0.5221 C   0  0  0  0  0  0  0  0  0  0  0  0
   -2.1596   -3.9316   -1.9055 C   0  0  0  0  0  0  0  0  0  0  0  0
   -4.2220   -4.1001   -0.2562 C   0  0  0  0  0  0  0  0  0  0  0  0
   -0.7297   -4.3871    1.0745 C   0  0  0  0  0  0  0  0  0  0  0  0
   -1.6672    2.7509   -2.9644 O   0  0  0  0  0  0  0  0  0  0  0  0
   -5.0435   -4.1131   -1.5548 C   0  0  0  0  0  0  0  0  0  0  0  0
   -2.8468   -3.3386    1.8686 C   0  0  0  0  0  0  0  0  0  0  0  0
   -6.5003   -3.9716   -1.1480 C   0  0  0  0  0  0  0  0  0  0  0  0
   -3.7321   -2.1608    1.6255 C   0  0  0  0  0  0  0  0  0  0  0  0
   -4.5067   -5.2001    0.7784 C   0  0  0  0  0  0  0  0  0  0  0  0
  1  2  1  0
  1  4  1  0
  1 10  1  0
  2  3  1  0
  2  7  2  0
  3  6  1  0
  3  9  2  0
  4  5  1  0
  4 12  2  0
  5  6  2  0
  7  8  1  0
  8  9  1  0
  8 13  1  0
 10 11  1  0
 10 16  1  0
 11 18  1  0
 13 14  2  0
 13 15  1  0
 16 17  2  0
 16 19  1  0
 18 21  1  0
 19 20  1  0
 20 23  1  0
 20 26  1  0
 20 29  1  0
 21 22  2  0
 21 27  1  0
 23 24  1  0
 23 25  1  0
 25 28  1  0
 25 32  1  0
 28 30  1  0
 29 31  1  0
M  END

$$$$

     RDKit          3D

 17 18  0  0  0  0  0  0  0  0999 V2000
    0.0000    0.0000    0.0000 C   0  0  0  0  0  0  0  0  0  0  0  0
    0.0000    0.0000    1.4595 C   0  0  0  0  0  0  0  0  0  0  0  0
    1.2539    0.0000    2.0688 C   0  0  0  0  0  0  0  0  0  0  0  0
    1.1453   -0.0563   -0.6620 C   0  0  0  0  0  0  0  0  0  0  0  0
    2.3618   -0.1160   -0.0340 N   0  0  0  0  0  0  0  0  0  0  0  0
    2.4257   -0.1192    1.3116 C   0  0  0  0  0  0  0  0  0  0  0  0
   -1.1008    0.0000    2.3408 C   0  0  0  0  0  0  0  0  0  0  0  0
   -0.8941    0.0554    3.7265 C   0  0  0  0  0  0  0  0  0  0  0  0
    0.3495    0.1107    4.2805 C   0  0  0  0  0  0  0  0  0  0  0  0
    1.4738    0.1139    3.4698 C   0  0  0  0  0  0  0  0  0  0  0  0
   -2.4136   -0.0645    1.8761 C   0  0  0  0  0  0  0  0  0  0  0  0
   -3.5454   -0.1138    1.6233 N   0  0  0  0  0  0  0  0  0  0  0  0
    2.9120    0.2182    3.6328 C   0  0  0  0  0  0  0  0  0  0  0  0
    3.5225    0.1102    2.4884 N   0  0  0  0  0  0  0  0  0  0  0  0
   -1.2636    0.1245   -0.8182 C   0  0  0  0  0  0  0  0  0  0  0  0
    3.4505    0.3547    4.8599 N   0  0  0  0  0  0  0  0  0  0  0  0
   -1.1479   -0.3517   -2.1233 O   0  0  0  0  0  0  0  0  0  0  0  0
  1  2  2  0
  1  4  1  0
  1 15  1  0
  2  3  1  0
  2  7  1  0
  3  6  2  0
  3 10  1  0
  4  5  2  0
  5  6  1  0
  7  8  2  0
  7 11  1  0
  8  9  1  0
  9 10  2  0
 10 13  1  0
 11 12  3  0
 13 14  2  0
 13 16  1  0
 15 17  1  0
M  END

$$$$

     RDKit          3D

 13 13  0  0  0  0  0  0  0  0999 V2000
    0.0000    0.0000    0.0000 C   0  0  0  0  0  0  0  0  0  0  0  0
    0.0000    0.0000    1.3625 C   0  0  0  0  0  0  0  0  0  0  0  0
    1.1743    0.0000    2.0066 C   0  0  0  0  0  0  0  0  0  0  0  0
    1.1530   -0.1136   -0.7465 N   0  0  0  0  0  0  0  0  0  0  0  0
    2.2852   -0.1692   -0.0920 C   0  0  0  0  0  0  0  0  0  0  0  0
    2.3498   -0.1771    1.2381 C   0  0  0  0  0  0  0  0  0  0  0  0
    3.6321   -0.1844    1.8247 N   0  0  0  0  0  0  0  0  0  0  0  0
    4.3525   -1.4050    1.6635 N   0  0  0  0  0  0  0  0  0  0  0  0
    1.3141    0.0579    3.4836 C   0  0  0  0  0  0  0  0  0  0  0  0
   -1.0646    0.1049   -0.8565 N   0  0  0  0  0  0  0  0  0  0  0  0
   -0.8982    0.2414   -2.2501 C   0  0  0  0  0  0  0  0  0  0  0  0
   -2.3037    0.6181   -0.4475 O   0  0  0  0  0  0  0  0  0  0  0  0
    4.8969   -1.6075    0.3246 C   0  0  0  0  0  0  0  0  0  0  0  0
  1  2  2  0
  1  4  1  0
  1 10  1  0
  2  3  1  0
  3  6  2  0
  3  9  1  0
  4  5  2  0
  5  6  1  0
  6  7  1  0
  7  8  1  0
  8 13  1  0
 10 11  1  0
 10 12  1  0
M  END

$$$$

     RDKit          3D

 32 35  0  0  0  0  0  0  0  0999 V2000
    0.0000    0.0000    0.0000 C   0  0  0  0  0  0  0  0  0  0  0  0
    0.0000    0.0000    1.2867 C   0  0  0  0  0  0  0  0  0  0  0  0
    1.2223    0.0000    2.0378 C   0  0  0  0  0  0  0  0  0  0  0  0
    1.1130    0.0000   -0.7172 N   0  0  0  0  0  0  0  0  0  0  0  0
    2.3788    0.0622   -0.1363 C   0  0  0  0  0  0  0  0  0  0  0  0
    2.4451   -0.0535    1.2757 C   0  0  0  0  0  0  0  0  0  0  0  0
    3.5635    0.1954   -0.8437 C   0  0  0  0  0  0  0  0  0  0  0  0
    3.6859   -0.0471    1.8934 C   0  0  0  0  0  0  0  0  0  0  0  0
    4.8031    0.3032   -0.2149 C   0  0  0  0  0  0  0  0  0  0  0  0
    4.8472    0.1287    1.1572 C   0  0  0  0  0  0  0  0  0  0  0  0
    1.1748    0.0475    3.3526 N   0  0  0  0  0  0  0  0  0  0  0  0
   -0.0105    0.0376    4.1462 C   0  0  0  0  0  0  0  0  0  0  0  0
    0.9779    0.0560   -2.1443 C   0  0  0  0  0  0  0  0  0  0  0  0
    1.4246   -0.9805   -2.9355 C   0  0  0  0  0  0  0  0  0  0  0  0
    0.4619    1.2005   -2.7318 C   0  0  0  0  0  0  0  0  0  0  0  0
    1.2277   -0.9035   -4.3054 C   0  0  0  0  0  0  0  0  0  0  0  0
    0.2679    1.2814   -4.0939 C   0  0  0  0  0  0  0  0  0  0  0  0
    0.5448    0.1593   -4.8759 C   0  0  0  0  0  0  0  0  0  0  0  0
   -0.4810   -1.3731    4.5670 C   0  0  0  0  0  0  0  0  0  0  0  0
   -1.6334    0.0802    2.2309 Br  0  0  0  0  0  0  0  0  0  0  0  0
    5.8950    0.3763   -1.0135 O   0  0  0  0  0  0  0  0  0  0  0  0
    0.3131    0.1686   -6.3511 C   0  0  0  0  0  0  0  0  0  0  0  0
   -0.9702   -2.0587    3.3956 O   0  0  0  0  0  0  0  0  0  0  0  0
   -1.6665   -1.3152    5.5291 C   0  0  0  0  0  0  0  0  0  0  0  0
    7.1830    0.5405   -0.5061 C   0  0  0  0  0  0  0  0  0  0  0  0
   -0.1156   -3.0243    2.9801 N   0  0  0  0  0  0  0  0  0  0  0  0
    0.8336   -3.1528    3.8392 C   0  0  0  0  0  0  0  0  0  0  0  0
    7.3912    1.8665    0.1085 C   0  0  0  0  0  0  0  0  0  0  0  0
    8.4672    2.0533    0.8970 O   0  0  0  0  0  0  0  0  0  0  0  0
    6.6494    2.9151    0.0319 N   0  0  0  0  0  0  0  0  0  0  0  0
    8.3988    3.3517    1.2493 N   0  0  0  0  0  0  0  0  0  0  0  0
    7.3258    3.8938    0.7432 C   0  0  0  0  0  0  0  0  0  0  0  0
  1  2  2  0
  1  4  1  0
  2  3  1  0
  2 20  1  0
  3  6  1  0
  3 11  2  3
  4  5  1  0
  4 13  1  0
  5  6  2  0
  5  7  1  0
  6  8  1  0
  7  9  2  0
  8 10  2  0
  9 10  1  0
  9 21  1  0
 11 12  1  0
 12 19  1  0
 13 14  2  0
 13 15  1  0
 14 16  1  0
 15 17  2  0
 16 18  2  0
 17 18  1  0
 18 22  1  0
 19 23  1  0
 19 24  1  0
 21 25  1  0
 23 26  1  0
 25 28  1  0
 26 27  2  0
 28 29  1  0
 28 30  2  0
 29 31  1  0
 30 32  1  0
 31 32  2  0
M  END

$$$$

     RDKit          3D

 31 33  0  0  0  0  0  0  0  0999 V2000
    0.0000    0.0000    0.0000 C   0  0  0  0  0  0  0  0  0  0  0  0
    0.0000    0.0000    1.2941 N   0  0  0  0  0  0  0  0  0  0  0  0
    1.2987    0.0000    1.8227 C   0  0  0  0  0  0  0  0  0  0  0  0
    1.1524    0.0000   -0.9227 C   0  0  0  0  0  0  0  0  0  0  0  0
    2.4110   -0.0618   -0.3451 C   0  0  0  0  0  0  0  0  0  0  0  0
    2.4101   -0.1184    1.1049 C   0  0  0  0  0  0  0  0  0  0  0  0
    3.5996   -0.1281   -0.9589 O   0  0  0  0  0  0  0  0  0  0  0  0
    0.8252    0.0518   -2.1891 O   0  0  0  0  0  0  0  0  0  0  0  0
    3.8559    0.0530   -2.3587 C   0  0  0  0  0  0  0  0  0  0  0  0
    3.7507    1.5333   -2.7223 C   0  0  0  0  0  0  0  0  0  0  0  0
    1.4401   -0.0586    3.3167 C   0  0  0  0  0  0  0  0  0  0  0  0
    1.9806   -0.9908    3.8476 O   0  0  0  0  0  0  0  0  0  0  0  0
    0.9477    0.9362    4.0799 O   0  0  0  0  0  0  0  0  0  0  0  0
   -0.6425    0.0362   -2.1906 C   0  0  0  0  0  0  0  0  0  0  0  0
   -1.1647    0.1391   -0.8045 C   0  0  0  0  0  0  0  0  0  0  0  0
   -2.4091    0.3230   -0.3015 C   0  0  0  0  0  0  0  0  0  0  0  0
    0.4029    2.1059    3.5313 C   0  0  0  0  0  0  0  0  0  0  0  0
    1.1919    2.7042    2.5386 O   0  0  0  0  0  0  0  0  0  0  0  0
    2.2929    3.4026    2.9342 C   0  0  0  0  0  0  0  0  0  0  0  0
    2.5077    3.6404    4.1063 O   0  0  0  0  0  0  0  0  0  0  0  0
   -1.0709    1.1983   -3.0852 C   0  0  0  0  0  0  0  0  0  0  0  0
   -3.5715    0.5356   -1.1438 C   0  0  0  0  0  0  0  0  0  0  0  0
   -4.7562   -0.0525   -0.6783 C   0  0  0  0  0  0  0  0  0  0  0  0
   -3.6734    1.3040   -2.3025 C   0  0  0  0  0  0  0  0  0  0  0  0
   -5.8887    0.0828   -1.4799 C   0  0  0  0  0  0  0  0  0  0  0  0
   -4.7903    1.4369   -3.0989 C   0  0  0  0  0  0  0  0  0  0  0  0
   -5.8933    0.8193   -2.6730 C   0  0  0  0  0  0  0  0  0  0  0  0
    3.0453    3.8051    1.8618 N   0  0  0  0  0  0  0  0  0  0  0  0
   -4.8358   -0.7595    0.7036 C   0  0  0  0  0  0  0  0  0  0  0  0
   -4.9990   -1.9696    0.7537 O   0  0  0  0  0  0  0  0  0  0  0  0
   -6.9542    0.9380   -3.5072 O   0  0  0  0  0  0  0  0  0  0  0  0
  1  2  2  0
  1  4  1  0
  1 15  1  0
  2  3  1  0
  3  6  2  0
  3 11  1  0
  4  5  2  0
  4  8  1  0
  5  6  1  0
  5  7  1  0
  7  9  1  0
  8 14  1  0
  9 10  1  0
 11 12  2  0
 11 13  1  0
 13 17  1  0
 14 15  1  0
 14 21  1  0
 15 16  2  3
 16 22  1  0
 17 18  1  0
 18 19  1  0
 19 20  2  0
 19 28  1  0
 22 23  2  0
 22 24  1  0
 23 25  1  0
 23 29  1  0
 24 26  2  0
 25 27  2  0
 26 27  1  0
 27 31  1  0
 29 30  2  0
M  END

$$$$

     RDKit          3D

 30 33  0  0  0  0  0  0  0  0999 V2000
    0.0000    0.0000    0.0000 C   0  0  0  0  0  0  0  0  0  0  0  0
    0.0000    0.0000    1.2721 C   0  0  0  0  0  0  0  0  0  0  0  0
    1.2535    0.0000    1.9866 C   0  0  0  0  0  0  0  0  0  0  0  0
    1.0585    0.1043   -0.8516 N   0  0  0  0  0  0  0  0  0  0  0  0
    2.2695    0.1043   -0.2271 C   0  0  0  0  0  0  0  0  0  0  0  0
    2.4849    0.0690    1.1579 C   0  0  0  0  0  0  0  0  0  0  0  0
    3.3361    0.0789   -1.0240 N   0  0  0  0  0  0  0  0  0  0  0  0
    3.8179    0.1351    1.3902 N   0  0  0  0  0  0  0  0  0  0  0  0
    4.1779    0.0380    0.0071 C   0  0  0  0  0  0  0  0  0  0  0  0
    4.6249    0.0868    2.5260 O   0  0  0  0  0  0  0  0  0  0  0  0
    5.5440   -0.0587   -0.4726 C   0  0  0  0  0  0  0  0  0  0  0  0
    6.4659    0.0259    0.5591 C   0  0  0  0  0  0  0  0  0  0  0  0
    6.0112   -0.2840   -1.7581 C   0  0  0  0  0  0  0  0  0  0  0  0
    7.7114   -0.1308   -0.0099 C   0  0  0  0  0  0  0  0  0  0  0  0
    7.2659   -0.3429   -2.3442 C   0  0  0  0  0  0  0  0  0  0  0  0
    8.2142   -0.3420   -1.3104 C   0  0  0  0  0  0  0  0  0  0  0  0
    8.6400   -0.0080    0.9474 F   0  0  0  0  0  0  0  0  0  0  0  0
    0.9180   -0.0670   -2.2857 C   0  0  0  0  0  0  0  0  0  0  0  0
    9.5047   -0.4214   -1.6884 O   0  0  0  0  0  0  0  0  0  0  0  0
    0.6755   -1.5004   -2.6624 C   0  0  0  0  0  0  0  0  0  0  0  0
    0.6410   -2.5435   -1.8723 C   0  0  0  0  0  0  0  0  0  0  0  0
    7.5271   -0.5282   -3.6606 F   0  0  0  0  0  0  0  0  0  0  0  0
   10.1106   -1.0635   -2.7570 C   0  0  0  0  0  0  0  0  0  0  0  0
    9.5817   -2.3179   -3.0573 C   0  0  0  0  0  0  0  0  0  0  0  0
   11.0846   -0.4969   -3.5643 C   0  0  0  0  0  0  0  0  0  0  0  0
   10.3073   -2.9739   -4.0507 C   0  0  0  0  0  0  0  0  0  0  0  0
   11.7529   -1.1148   -4.6098 C   0  0  0  0  0  0  0  0  0  0  0  0
   11.4353   -2.4580   -4.6870 C   0  0  0  0  0  0  0  0  0  0  0  0
    9.9206   -4.2191   -4.3891 O   0  0  0  0  0  0  0  0  0  0  0  0
    8.8885   -4.9869   -3.8113 C   0  0  0  0  0  0  0  0  0  0  0  0
  1  2  2  0
  1  4  1  0
  2  3  1  0
  3  6  1  0
  4  5  1  0
  4 18  1  0
  5  6  2  0
  5  7  1  0
  6  8  1  0
  7  9  2  0
  8  9  1  0
  8 10  1  0
  9 11  1  0
 11 12  2  0
 11 13  1  0
 12 14  1  0
 13 15  2  0
 14 16  2  0
 14 17  1  0
 15 16  1  0
 15 22  1  0
 16 19  1  0
 18 20  1  0
 19 23  1  0
 20 21  2  0
 23 24  2  0
 23 25  1  0
 24 26  1  0
 25 27  2  0
 26 28  2  0
 26 29  1  0
 27 28  1  0
 29 30  1  0
M  END

$$$$

     RDKit          3D

 31 33  0  0  0  0  0  0  0  0999 V2000
    0.0000    0.0000    0.0000 N   0  0  0  0  0  0  0  0  0  0  0  0
    0.0000    0.0000    1.3548 C   0  0  0  0  0  0  0  0  0  0  0  0
    1.1503    0.0000    2.1424 C   0  0  0  0  0  0  0  0  0  0  0  0
    1.2514    0.0615   -0.5743 C   0  0  0  0  0  0  0  0  0  0  0  0
    2.3697   -0.1044    0.0088 C   0  0  0  0  0  0  0  0  0  0  0  0
    2.4357   -0.1309    1.4334 C   0  0  0  0  0  0  0  0  0  0  0  0
    3.7183   -0.0852    1.9138 N   0  0  0  0  0  0  0  0  0  0  0  0
    3.9057    0.5676    3.1313 C   0  0  0  0  0  0  0  0  0  0  0  0
    3.0468    1.5208    3.6766 C   0  0  0  0  0  0  0  0  0  0  0  0
    5.0754    0.2779    3.8481 C   0  0  0  0  0  0  0  0  0  0  0  0
    3.1629    2.1471    4.8811 C   0  0  0  0  0  0  0  0  0  0  0  0
    5.2801    0.8616    5.0797 C   0  0  0  0  0  0  0  0  0  0  0  0
    4.2798    1.7772    5.6438 C   0  0  0  0  0  0  0  0  0  0  0  0
   -1.4484    0.0000    2.2881 S   0  0  0  0  0  0  0  0  0  0  0  0
   -0.5064    0.0674    3.7649 C   0  0  0  0  0  0  0  0  0  0  0  0
    0.8303    0.0351    3.5465 C   0  0  0  0  0  0  0  0  0  0  0  0
    2.3368    3.0942    5.3442 F   0  0  0  0  0  0  0  0  0  0  0  0
    4.9421   -0.4608    1.2482 C   0  0  0  0  0  0  0  0  0  0  0  0
    5.7678    0.7007    0.6055 C   0  0  0  0  0  0  0  0  0  0  0  0
   -1.1876    0.0383    5.0647 C   0  0  0  0  0  0  0  0  0  0  0  0
   -0.5710   -0.1608    6.1009 O   0  0  0  0  0  0  0  0  0  0  0  0
    7.0384    0.8598    1.1961 O   0  0  0  0  0  0  0  0  0  0  0  0
    4.2591    2.4233    6.8344 O   0  0  0  0  0  0  0  0  0  0  0  0
   -2.5107    0.2250    4.9728 N   0  0  0  0  0  0  0  0  0  0  0  0
   -3.4521    0.1856    6.1202 C   0  0  0  0  0  0  0  0  0  0  0  0
   -3.0993    1.3254    7.0885 C   0  0  0  0  0  0  0  0  0  0  0  0
   -3.3009   -1.1788    6.8682 C   0  0  0  0  0  0  0  0  0  0  0  0
   -4.8913    0.3930    5.5461 C   0  0  0  0  0  0  0  0  0  0  0  0
   -5.4290    1.7737    5.9856 C   0  0  0  0  0  0  0  0  0  0  0  0
    5.2437    1.9326    7.7167 C   0  0  0  0  0  0  0  0  0  0  0  0
   -4.4527    2.7190    5.7562 O   0  0  0  0  0  0  0  0  0  0  0  0
  1  2  2  0
  1  4  1  0
  2  3  1  0
  2 14  1  0
  3  6  2  0
  3 16  1  0
  4  5  2  0
  5  6  1  0
  6  7  1  0
  7  8  1  0
  7 18  1  0
  8  9  2  0
  8 10  1  0
  9 11  1  0
 10 12  2  0
 11 13  2  0
 11 17  1  0
 12 13  1  0
 13 23  1  0
 14 15  1  0
 15 16  2  0
 15 20  1  0
 18 19  1  0
 19 22  1  0
 20 21  2  0
 20 24  1  0
 23 30  1  0
 24 25  1  0
 25 26  1  0
 25 27  1  0
 25 28  1  0
 28 29  1  0
 29 31  1  0
M  END

$$$$

     RDKit          3D

 31 34  0  0  0  0  0  0  0  0999 V2000
    0.0000    0.0000    0.0000 C   0  0  0  0  0  0  0  0  0  0  0  0
    0.0000    0.0000    1.3165 C   0  0  0  0  0  0  0  0  0  0  0  0
    1.3561    0.0000    1.9212 C   0  0  0  0  0  0  0  0  0  0  0  0
    1.1375    0.0559   -0.8179 N   0  0  0  0  0  0  0  0  0  0  0  0
    2.3139    0.0559   -0.2787 C   0  0  0  0  0  0  0  0  0  0  0  0
    2.4552    0.0600    1.1407 C   0  0  0  0  0  0  0  0  0  0  0  0
    1.4049    0.0489    3.2742 N   0  0  0  0  0  0  0  0  0  0  0  0
    2.5436    0.2266    4.1285 C   0  0  0  0  0  0  0  0  0  0  0  0
    3.4251    0.0600   -1.2505 C   0  0  0  0  0  0  0  0  0  0  0  0
    4.4976    0.9581   -1.3470 C   0  0  0  0  0  0  0  0  0  0  0  0
    3.4495   -0.8746   -2.2739 C   0  0  0  0  0  0  0  0  0  0  0  0
    5.4277    0.9506   -2.2468 N   0  0  0  0  0  0  0  0  0  0  0  0
    4.4115   -0.9388   -3.2809 C   0  0  0  0  0  0  0  0  0  0  0  0
    5.4519    0.0225   -3.2334 C   0  0  0  0  0  0  0  0  0  0  0  0
    4.3654   -1.8842   -4.3371 C   0  0  0  0  0  0  0  0  0  0  0  0
    6.5076    0.0245   -4.1562 C   0  0  0  0  0  0  0  0  0  0  0  0
    5.4096   -1.8825   -5.2487 C   0  0  0  0  0  0  0  0  0  0  0  0
    6.5486   -0.8634   -5.1992 C   0  0  0  0  0  0  0  0  0  0  0  0
    5.4319   -2.7838   -6.2288 F   0  0  0  0  0  0  0  0  0  0  0  0
    3.2380   -2.8746   -4.3979 C   0  0  0  0  0  0  0  0  0  0  0  0
    4.6922    2.0648   -0.3635 N   0  0  0  0  0  0  0  0  0  0  0  0
    2.9358    1.6638    4.3776 C   0  0  0  0  0  0  0  0  0  0  0  0
    3.6115    1.9946    5.5418 C   0  0  0  0  0  0  0  0  0  0  0  0
    2.6897    2.6533    3.4268 C   0  0  0  0  0  0  0  0  0  0  0  0
    4.0760    3.2783    5.8616 C   0  0  0  0  0  0  0  0  0  0  0  0
    3.1096    3.9418    3.6778 C   0  0  0  0  0  0  0  0  0  0  0  0
    3.8400    4.3201    4.9286 C   0  0  0  0  0  0  0  0  0  0  0  0
    4.7546    3.3959    7.0102 O   0  0  0  0  0  0  0  0  0  0  0  0
    5.2800    4.5775    7.5926 C   0  0  0  0  0  0  0  0  0  0  0  0
    3.7417    0.0096    1.6753 C   0  0  0  0  0  0  0  0  0  0  0  0
    4.7681   -0.0300    2.2014 N   0  0  0  0  0  0  0  0  0  0  0  0
  1  2  2  0
  1  4  1  0
  2  3  1  0
  3  6  2  0
  3  7  1  0
  4  5  2  0
  5  6  1  0
  5  9  1  0
  6 30  1  0
  7  8  1  0
  8 22  1  0
  9 10  2  0
  9 11  1  0
 10 12  1  0
 10 21  1  0
 11 13  2  0
 12 14  2  0
 13 14  1  0
 13 15  1  0
 14 16  1  0
 15 17  2  0
 15 20  1  0
 16 18  2  0
 17 18  1  0
 17 19  1  0
 22 23  2  0
 22 24  1  0
 23 25  1  0
 24 26  2  0
 25 27  1  0
 25 28  1  0
 26 27  1  0
 28 29  1  0
 30 31  3  0
M  END

$$$$

     RDKit          3D

 20 21  0  0  0  0  0  0  0  0999 V2000
    0.0000    0.0000    0.0000 C   0  0  0  0  0  0  0  0  0  0  0  0
    0.0000    0.0000    1.3625 C   0  0  0  0  0  0  0  0  0  0  0  0
    1.0665    0.0000    2.1728 N   0  0  0  0  0  0  0  0  0  0  0  0
    1.2536   -0.1860   -0.5809 C   0  0  0  0  0  0  0  0  0  0  0  0
    2.4188   -0.1860    0.2560 C   0  0  0  0  0  0  0  0  0  0  0  0
    2.2280   -0.1115    1.6430 C   0  0  0  0  0  0  0  0  0  0  0  0
    3.7895   -0.2108   -0.2200 C   0  0  0  0  0  0  0  0  0  0  0  0
    3.3002   -0.0598    2.4695 N   0  0  0  0  0  0  0  0  0  0  0  0
    4.7894   -0.1514    0.7497 N   0  0  0  0  0  0  0  0  0  0  0  0
    4.0813   -0.2348   -1.4210 O   0  0  0  0  0  0  0  0  0  0  0  0
    4.5849   -0.0766    2.0159 C   0  0  0  0  0  0  0  0  0  0  0  0
    5.8420    0.0471    3.0565 S   0  0  0  0  0  0  0  0  0  0  0  0
    1.0096   -0.2857    3.5775 C   0  0  0  0  0  0  0  0  0  0  0  0
    1.2767   -0.3867   -1.8895 N   0  0  0  0  0  0  0  0  0  0  0  0
    6.1835   -0.2260    0.3244 C   0  0  0  0  0  0  0  0  0  0  0  0
    0.5261   -1.7594    3.6787 C   0  0  0  0  0  0  0  0  0  0  0  0
    0.0177   -2.3579    2.7696 O   0  0  0  0  0  0  0  0  0  0  0  0
    0.6386   -2.3755    5.0249 C   0  0  0  0  0  0  0  0  0  0  0  0
    6.8450   -1.5847    0.5492 C   0  0  0  0  0  0  0  0  0  0  0  0
    6.0989   -2.6872   -0.1827 C   0  0  0  0  0  0  0  0  0  0  0  0
  1  2  2  0
  1  4  1  0
  2  3  1  0
  3  6  1  0
  3 13  1  0
  4  5  1  0
  4 14  2  0
  5  6  2  0
  5  7  1  0
  6  8  1  0
  7  9  1  0
  7 10  2  0
  8 11  2  0
  9 11  1  0
  9 15  1  0
 11 12  1  0
 13 16  1  0
 15 19  1  0
 16 17  2  0
 16 18  1  0
 19 20  1  0
M  END

$$$$

     RDKit          3D

 30 32  0  0  0  0  0  0  0  0999 V2000
    0.0000    0.0000    0.0000 C   0  0  0  0  0  0  0  0  0  0  0  0
    0.0000    0.0000    1.3782 C   0  0  0  0  0  0  0  0  0  0  0  0
    1.1905    0.0000    2.0569 N   0  0  0  0  0  0  0  0  0  0  0  0
    1.1719   -0.0576   -0.6774 C   0  0  0  0  0  0  0  0  0  0  0  0
    2.3814   -0.1170   -0.0529 C   0  0  0  0  0  0  0  0  0  0  0  0
    2.4464   -0.1202    1.3159 C   0  0  0  0  0  0  0  0  0  0  0  0
    3.4910   -0.1184    2.1541 N   0  0  0  0  0  0  0  0  0  0  0  0
    2.9580   -0.0718    3.3653 C   0  0  0  0  0  0  0  0  0  0  0  0
    1.5878   -0.0942    3.3652 N   0  0  0  0  0  0  0  0  0  0  0  0
    3.7704    0.0034    4.5754 C   0  0  0  0  0  0  0  0  0  0  0  0
    5.1469    0.0223    4.3548 C   0  0  0  0  0  0  0  0  0  0  0  0
    3.3261    0.1128    5.9092 C   0  0  0  0  0  0  0  0  0  0  0  0
    6.0267    0.1469    5.4290 C   0  0  0  0  0  0  0  0  0  0  0  0
    4.1591    0.2243    6.9226 N   0  0  0  0  0  0  0  0  0  0  0  0
    5.4706    0.2475    6.6861 C   0  0  0  0  0  0  0  0  0  0  0  0
    2.0228    0.1589    6.1790 O   0  0  0  0  0  0  0  0  0  0  0  0
    3.6275   -0.2315   -0.8362 C   0  0  0  0  0  0  0  0  0  0  0  0
    3.6297   -0.1705   -2.0567 O   0  0  0  0  0  0  0  0  0  0  0  0
    1.6261    0.3201    7.5311 C   0  0  0  0  0  0  0  0  0  0  0  0
   -1.2991    0.0638   -0.7509 C   0  0  0  0  0  0  0  0  0  0  0  0
   -2.1265   -0.9444   -0.4142 F   0  0  0  0  0  0  0  0  0  0  0  0
    4.7778   -0.4120   -0.1744 N   0  0  0  0  0  0  0  0  0  0  0  0
   -2.0237    1.1483   -0.4142 F   0  0  0  0  0  0  0  0  0  0  0  0
   -1.1750    0.0051   -2.0909 F   0  0  0  0  0  0  0  0  0  0  0  0
    6.0778   -0.6017   -0.7508 C   0  0  0  0  0  0  0  0  0  0  0  0
    7.1127   -1.3611    0.0939 C   0  0  0  0  0  0  0  0  0  0  0  0
    6.4193   -2.5883    0.4388 N   0  0  0  0  0  0  0  0  0  0  0  0
    6.4972   -3.5577   -0.6382 C   0  0  0  0  0  0  0  0  0  0  0  0
    8.4572   -1.2656   -0.2622 O   0  0  0  0  0  0  0  0  0  0  0  0
    9.4878   -1.9530    0.3945 C   0  0  0  0  0  0  0  0  0  0  0  0
  1  2  2  0
  1  4  1  0
  1 20  1  0
  2  3  1  0
  3  6  1  0
  3  9  1  0
  4  5  2  0
  5  6  1  0
  5 17  1  0
  6  7  2  0
  7  8  1  0
  8  9  2  0
  8 10  1  0
 10 11  2  0
 10 12  1  0
 11 13  1  0
 12 14  2  0
 12 16  1  0
 13 15  2  0
 14 15  1  0
 16 19  1  0
 17 18  2  0
 17 22  1  0
 20 21  1  0
 20 23  1  0
 20 24  1  0
 22 25  1  0
 25 26  1  0
 26 27  1  0
 26 29  1  0
 27 28  1  0
 29 30  1  0
M  END

$$$$

     RDKit          3D

 30 33  0  0  0  0  0  0  0  0999 V2000
    0.0000    0.0000    0.0000 C   0  0  0  0  0  0  0  0  0  0  0  0
    0.0000    0.0000    1.4183 C   0  0  0  0  0  0  0  0  0  0  0  0
    1.2111    0.0000    2.1087 C   0  0  0  0  0  0  0  0  0  0  0  0
    1.2391    0.0000   -0.6390 C   0  0  0  0  0  0  0  0  0  0  0  0
    2.3713    0.0556    0.0155 N   0  0  0  0  0  0  0  0  0  0  0  0
    2.3092    0.1639    1.2669 C   0  0  0  0  0  0  0  0  0  0  0  0
   -1.2409    0.0610   -0.7173 C   0  0  0  0  0  0  0  0  0  0  0  0
   -1.5568    0.7897   -1.8244 C   0  0  0  0  0  0  0  0  0  0  0  0
   -0.9665    1.8381   -2.6356 C   0  0  0  0  0  0  0  0  0  0  0  0
   -1.7865    2.2894   -3.5293 N   0  0  0  0  0  0  0  0  0  0  0  0
   -1.1904    0.0000    2.0321 O   0  0  0  0  0  0  0  0  0  0  0  0
    0.3403    2.5255   -2.4799 C   0  0  0  0  0  0  0  0  0  0  0  0
   -2.9631    1.5899   -3.4638 N   0  0  0  0  0  0  0  0  0  0  0  0
    3.6667    0.3751    1.8520 N   0  0  0  0  0  0  0  0  0  0  0  0
   -2.8650    0.5611   -2.4883 C   0  0  0  0  0  0  0  0  0  0  0  0
   -3.7434   -0.2271   -2.2636 O   0  0  0  0  0  0  0  0  0  0  0  0
   -1.2410   -0.0506    3.4324 C   0  0  0  0  0  0  0  0  0  0  0  0
   -3.9749    1.9027   -4.4071 C   0  0  0  0  0  0  0  0  0  0  0  0
   -4.1810    3.2352   -4.6925 C   0  0  0  0  0  0  0  0  0  0  0  0
   -4.7665    0.9165   -5.0492 C   0  0  0  0  0  0  0  0  0  0  0  0
   -5.1469    3.5947   -5.6668 C   0  0  0  0  0  0  0  0  0  0  0  0
   -5.7950    1.3660   -5.9427 C   0  0  0  0  0  0  0  0  0  0  0  0
   -4.6517   -0.4809   -4.8361 C   0  0  0  0  0  0  0  0  0  0  0  0
   -5.9115    2.6365   -6.2795 C   0  0  0  0  0  0  0  0  0  0  0  0
   -6.6425    0.5267   -6.5685 N   0  0  0  0  0  0  0  0  0  0  0  0
   -5.5163   -1.3382   -5.4819 C   0  0  0  0  0  0  0  0  0  0  0  0
   -6.5443   -0.7484   -6.3707 C   0  0  0  0  0  0  0  0  0  0  0  0
   -3.6960   -0.9731   -4.0116 O   0  0  0  0  0  0  0  0  0  0  0  0
   -5.2212    4.9048   -5.8939 O   0  0  0  0  0  0  0  0  0  0  0  0
   -6.1118    5.3863   -6.8872 C   0  0  0  0  0  0  0  0  0  0  0  0
  1  2  2  0
  1  4  1  0
  1  7  1  0
  2  3  1  0
  2 11  1  0
  3  6  2  0
  4  5  2  0
  5  6  1  0
  6 14  1  0
  7  8  2  3
  8  9  1  0
  8 15  1  0
  9 10  2  0
  9 12  1  0
 10 13  1  0
 11 17  1  0
 13 15  1  0
 13 18  1  0
 15 16  2  0
 18 19  2  0
 18 20  1  0
 19 21  1  0
 20 22  2  0
 20 23  1  0
 21 24  2  0
 21 29  1  0
 22 24  1  0
 22 25  1  0
 23 26  2  0
 23 28  1  0
 25 27  2  0
 26 27  1  0
 29 30  1  0
M  END

$$$$

     RDKit          3D

 30 33  0  0  0  0  0  0  0  0999 V2000
    0.0000    0.0000    0.0000 C   0  0  0  0  0  0  0  0  0  0  0  0
    0.0000    0.0000    1.3941 C   0  0  0  0  0  0  0  0  0  0  0  0
    1.1543    0.0000    2.0272 C   0  0  0  0  0  0  0  0  0  0  0  0
    1.2331   -0.1214   -0.6390 C   0  0  0  0  0  0  0  0  0  0  0  0
    2.3903   -0.0646    0.1931 C   0  0  0  0  0  0  0  0  0  0  0  0
    2.3360    0.0369    1.4970 N   0  0  0  0  0  0  0  0  0  0  0  0
   -1.3133    0.1293   -0.6805 C   0  0  0  0  0  0  0  0  0  0  0  0
   -2.3421   -0.2968   -0.2300 O   0  0  0  0  0  0  0  0  0  0  0  0
    1.3673   -0.2850   -2.0089 N   0  0  0  0  0  0  0  0  0  0  0  0
    0.5998   -1.0520   -2.8459 C   0  0  0  0  0  0  0  0  0  0  0  0
    2.3922    0.3410   -2.6689 N   0  0  0  0  0  0  0  0  0  0  0  0
   -0.4608   -1.9487   -2.7252 C   0  0  0  0  0  0  0  0  0  0  0  0
    1.1855   -0.7684   -4.1061 C   0  0  0  0  0  0  0  0  0  0  0  0
    2.2818    0.0899   -3.8816 N   0  0  0  0  0  0  0  0  0  0  0  0
   -0.9029   -2.5504   -3.8931 C   0  0  0  0  0  0  0  0  0  0  0  0
    0.7028   -1.4175   -5.2318 C   0  0  0  0  0  0  0  0  0  0  0  0
   -0.2988   -2.2552   -5.1144 C   0  0  0  0  0  0  0  0  0  0  0  0
   -1.2877    0.9097   -1.7687 O   0  0  0  0  0  0  0  0  0  0  0  0
    3.5941   -0.2248   -0.3717 O   0  0  0  0  0  0  0  0  0  0  0  0
    4.7018   -0.0303    0.4656 C   0  0  0  0  0  0  0  0  0  0  0  0
   -2.4991    1.1581   -2.4797 C   0  0  0  0  0  0  0  0  0  0  0  0
    4.4740   -0.6874    1.8657 C   0  0  0  0  0  0  0  0  0  0  0  0
    4.2250   -1.8560    2.0450 O   0  0  0  0  0  0  0  0  0  0  0  0
    4.7879    0.3704    2.8718 N   0  0  0  0  0  0  0  0  0  0  0  0
    4.9477    1.4100    0.8814 C   0  0  0  0  0  0  0  0  0  0  0  0
    4.2022    2.4013    0.2988 C   0  0  0  0  0  0  0  0  0  0  0  0
    5.9143    1.7271    1.8229 C   0  0  0  0  0  0  0  0  0  0  0  0
    4.4977    3.7106    0.6755 C   0  0  0  0  0  0  0  0  0  0  0  0
    6.2082    3.0292    2.1968 C   0  0  0  0  0  0  0  0  0  0  0  0
    5.4726    4.0980    1.5815 C   0  0  0  0  0  0  0  0  0  0  0  0
  1  2  2  0
  1  4  1  0
  1  7  1  0
  2  3  1  0
  3  6  2  0
  4  5  2  0
  4  9  1  0
  5  6  1  0
  5 19  1  0
  7  8  2  0
  7 18  1  0
  9 10  1  0
  9 11  1  0
 10 12  1  0
 10 13  2  0
 11 14  2  0
 12 15  2  0
 13 14  1  0
 13 16  1  0
 15 17  1  0
 16 17  2  0
 18 21  1  0
 19 20  1  0
 20 22  1  0
 20 25  1  0
 22 23  2  0
 22 24  1  0
 25 26  2  0
 25 27  1  0
 26 28  1  0
 27 29  2  0
 28 30  2  0
 29 30  1  0
M  END

$$$$

     RDKit          3D

 30 33  0  0  0  0  0  0  0  0999 V2000
    0.0000    0.0000    0.0000 C   0  0  0  0  0  0  0  0  0  0  0  0
    0.0000    0.0000    1.3470 C   0  0  0  0  0  0  0  0  0  0  0  0
    1.1892    0.0000    2.1050 C   0  0  0  0  0  0  0  0  0  0  0  0
    1.1585    0.0000   -0.7465 N   0  0  0  0  0  0  0  0  0  0  0  0
    2.3237   -0.0572   -0.0730 C   0  0  0  0  0  0  0  0  0  0  0  0
    2.4577   -0.1168    1.3214 C   0  0  0  0  0  0  0  0  0  0  0  0
    3.5629   -0.1206   -0.6359 N   0  0  0  0  0  0  0  0  0  0  0  0
    3.8026   -0.1092    1.6227 N   0  0  0  0  0  0  0  0  0  0  0  0
    4.3383   -0.2089    0.4150 C   0  0  0  0  0  0  0  0  0  0  0  0
    1.1059   -0.0526   -2.2041 C   0  0  0  0  0  0  0  0  0  0  0  0
    1.1406    0.0486    3.4503 N   0  0  0  0  0  0  0  0  0  0  0  0
    1.7550   -1.3203   -2.7072 C   0  0  0  0  0  0  0  0  0  0  0  0
    1.4706   -2.5208   -2.0753 C   0  0  0  0  0  0  0  0  0  0  0  0
    2.5715   -1.3012   -3.8076 C   0  0  0  0  0  0  0  0  0  0  0  0
    2.0873   -3.7152   -2.4744 C   0  0  0  0  0  0  0  0  0  0  0  0
    3.1112   -2.5112   -4.2666 C   0  0  0  0  0  0  0  0  0  0  0  0
    2.9811   -3.6892   -3.5962 C   0  0  0  0  0  0  0  0  0  0  0  0
    1.8179   -4.8428   -1.8038 N   0  0  0  0  0  0  0  0  0  0  0  0
    4.6796   -0.0904    2.7475 C   0  0  0  0  0  0  0  0  0  0  0  0
    6.3366    0.5148    2.0736 S   0  0  0  0  0  0  0  0  0  0  0  0
    7.4349   -0.0779    2.8462 O   0  0  0  0  0  0  0  0  0  0  0  0
    2.3417   -6.1424   -2.1479 C   0  0  0  0  0  0  0  0  0  0  0  0
    3.4707   -4.9025   -3.9166 O   0  0  0  0  0  0  0  0  0  0  0  0
    4.4202   -5.0020   -4.9874 C   0  0  0  0  0  0  0  0  0  0  0  0
    5.8300   -4.9241   -4.4510 C   0  0  0  0  0  0  0  0  0  0  0  0
    6.4891   -3.7576   -4.2031 C   0  0  0  0  0  0  0  0  0  0  0  0
    6.6157   -6.0694   -4.1257 C   0  0  0  0  0  0  0  0  0  0  0  0
    8.0379   -4.0103   -3.5406 S   0  0  0  0  0  0  0  0  0  0  0  0
    7.8306   -5.7286   -3.6116 C   0  0  0  0  0  0  0  0  0  0  0  0
    8.9490   -6.5891   -3.2075 C   0  0  0  0  0  0  0  0  0  0  0  0
  1  2  2  0
  1  4  1  0
  2  3  1  0
  3  6  1  0
  3 11  1  0
  4  5  1  0
  4 10  1  0
  5  6  2  0
  5  7  1  0
  6  8  1  0
  7  9  2  0
  8  9  1  0
  8 19  1  0
 10 12  1  0
 12 13  2  0
 12 14  1  0
 13 15  1  0
 14 16  2  0
 15 17  2  0
 15 18  1  0
 16 17  1  0
 17 23  1  0
 18 22  1  0
 19 20  1  0
 20 21  1  0
 23 24  1  0
 24 25  1  0
 25 26  2  0
 25 27  1  0
 26 28  1  0
 27 29  2  0
 28 29  1  0
 29 30  1  0
M  END

$$$$

     RDKit          3D

 29 32  0  0  0  0  0  0  0  0999 V2000
    0.0000    0.0000    0.0000 C   0  0  0  0  0  0  0  0  0  0  0  0
    0.0000    0.0000    1.2794 N   0  0  0  0  0  0  0  0  0  0  0  0
    1.1676    0.0000    1.9198 C   0  0  0  0  0  0  0  0  0  0  0  0
    1.1201   -0.1661   -0.8132 C   0  0  0  0  0  0  0  0  0  0  0  0
    2.3148   -0.2838   -0.1202 C   0  0  0  0  0  0  0  0  0  0  0  0
    2.3282   -0.1719    1.3266 C   0  0  0  0  0  0  0  0  0  0  0  0
    3.4245   -0.4955   -0.8679 N   0  0  0  0  0  0  0  0  0  0  0  0
   -1.3505    0.2003   -0.6258 N   0  0  0  0  0  0  0  0  0  0  0  0
    3.6378   -0.3632   -2.3141 C   0  0  0  0  0  0  0  0  0  0  0  0
    5.1547   -0.3432   -2.5591 C   0  0  0  0  0  0  0  0  0  0  0  0
    4.6448   -0.8646   -0.3040 C   0  0  0  0  0  0  0  0  0  0  0  0
    5.6205   -0.6602   -1.2786 C   0  0  0  0  0  0  0  0  0  0  0  0
    5.0306   -1.3597    0.9319 C   0  0  0  0  0  0  0  0  0  0  0  0
    6.9150   -1.0024   -0.9866 C   0  0  0  0  0  0  0  0  0  0  0  0
    6.3555   -1.7079    1.2310 C   0  0  0  0  0  0  0  0  0  0  0  0
    7.3247   -1.5399    0.2145 C   0  0  0  0  0  0  0  0  0  0  0  0
    3.8256    0.3236    2.3451 Br  0  0  0  0  0  0  0  0  0  0  0  0
    3.0951   -1.6304   -2.9929 C   0  0  0  0  0  0  0  0  0  0  0  0
    6.6639   -2.3150    2.4292 N   0  0  0  0  0  0  0  0  0  0  0  0
    2.7310   -1.2964   -4.4294 C   0  0  0  0  0  0  0  0  0  0  0  0
    8.9990   -1.7999    0.5784 Cl  0  0  0  0  0  0  0  0  0  0  0  0
    7.7635   -1.9212    3.2622 C   0  0  0  0  0  0  0  0  0  0  0  0
    5.6241   -2.9327    3.2160 C   0  0  0  0  0  0  0  0  0  0  0  0
    7.5608   -0.5180    3.8772 C   0  0  0  0  0  0  0  0  0  0  0  0
    7.4990    0.4834    2.8748 N   0  0  0  0  0  0  0  0  0  0  0  0
    6.4159    1.2060    2.4474 C   0  0  0  0  0  0  0  0  0  0  0  0
    8.5041    0.9706    2.0945 C   0  0  0  0  0  0  0  0  0  0  0  0
    6.6681    2.0191    1.4728 N   0  0  0  0  0  0  0  0  0  0  0  0
    7.9687    1.8901    1.2309 C   0  0  0  0  0  0  0  0  0  0  0  0
  1  2  2  0
  1  4  1  0
  1  8  1  0
  2  3  1  0
  3  6  2  0
  4  5  2  0
  5  6  1  0
  5  7  1  0
  6 17  1  0
  7  9  1  0
  7 11  1  0
  9 10  1  0
  9 18  1  0
 10 12  1  0
 11 12  2  0
 11 13  1  0
 12 14  1  0
 13 15  2  0
 14 16  2  0
 15 16  1  0
 15 19  1  0
 16 21  1  0
 18 20  1  0
 19 22  1  0
 19 23  1  0
 22 24  1  0
 24 25  1  0
 25 26  1  0
 25 27  1  0
 26 28  2  0
 27 29  2  0
 28 29  1  0
M  END

$$$$

     RDKit          3D

 31 34  0  0  0  0  0  0  0  0999 V2000
    0.0000    0.0000    0.0000 N   0  0  0  0  0  0  0  0  0  0  0  0
    0.0000    0.0000    1.3625 C   0  0  0  0  0  0  0  0  0  0  0  0
    1.1689    0.0000    2.1076 C   0  0  0  0  0  0  0  0  0  0  0  0
    1.1779   -0.1160   -0.6104 C   0  0  0  0  0  0  0  0  0  0  0  0
    2.4047   -0.1763    0.0988 C   0  0  0  0  0  0  0  0  0  0  0  0
    2.4099   -0.1161    1.4445 C   0  0  0  0  0  0  0  0  0  0  0  0
   -1.2345    0.0000    1.8619 O   0  0  0  0  0  0  0  0  0  0  0  0
   -1.4366   -0.0541    3.2162 C   0  0  0  0  0  0  0  0  0  0  0  0
   -2.7599   -0.1843    3.6857 C   0  0  0  0  0  0  0  0  0  0  0  0
   -0.3802    0.0107    4.1237 C   0  0  0  0  0  0  0  0  0  0  0  0
   -2.9103   -0.2846    5.0600 C   0  0  0  0  0  0  0  0  0  0  0  0
   -0.6280   -0.0972    5.4752 C   0  0  0  0  0  0  0  0  0  0  0  0
   -1.8204   -0.3229    5.9794 C   0  0  0  0  0  0  0  0  0  0  0  0
   -2.1590   -0.4746    7.2663 O   0  0  0  0  0  0  0  0  0  0  0  0
    1.1172   -0.0517    3.5403 C   0  0  0  0  0  0  0  0  0  0  0  0
    2.1237   -0.0976    4.2319 O   0  0  0  0  0  0  0  0  0  0  0  0
   -3.9003   -0.2047    2.9403 O   0  0  0  0  0  0  0  0  0  0  0  0
    1.1378    0.0161   -1.9581 N   0  0  0  0  0  0  0  0  0  0  0  0
   -0.0453   -0.1113   -2.7741 C   0  0  0  0  0  0  0  0  0  0  0  0
   -1.2913   -0.8716    8.2827 C   0  0  0  0  0  0  0  0  0  0  0  0
   -0.4873   -2.0083    8.1170 C   0  0  0  0  0  0  0  0  0  0  0  0
   -1.3134   -0.1759    9.4906 C   0  0  0  0  0  0  0  0  0  0  0  0
    0.2647   -2.4359    9.2103 C   0  0  0  0  0  0  0  0  0  0  0  0
   -0.5137   -0.5608   10.5347 C   0  0  0  0  0  0  0  0  0  0  0  0
    0.1934   -1.7384   10.3969 C   0  0  0  0  0  0  0  0  0  0  0  0
   -0.5135   -2.6873    6.9450 O   0  0  0  0  0  0  0  0  0  0  0  0
   -3.9055    0.4695    1.6925 C   0  0  0  0  0  0  0  0  0  0  0  0
   -0.5825   -1.5637   -2.6401 C   0  0  0  0  0  0  0  0  0  0  0  0
    0.4702   -2.5059   -2.4428 O   0  0  0  0  0  0  0  0  0  0  0  0
    0.6077   -3.2972    6.4247 C   0  0  0  0  0  0  0  0  0  0  0  0
    0.3990   -4.0875    5.2855 C   0  0  0  0  0  0  0  0  0  0  0  0
  1  2  2  0
  1  4  1  0
  2  3  1  0
  2  7  1  0
  3  6  2  0
  3 15  1  0
  4  5  2  0
  4 18  1  0
  5  6  1  0
  7  8  1  0
  8  9  2  0
  8 10  1  0
  9 11  1  0
  9 17  1  0
 10 12  2  0
 10 15  1  0
 11 13  2  0
 12 13  1  0
 13 14  1  0
 14 20  1  0
 15 16  2  0
 17 27  1  0
 18 19  1  0
 19 28  1  0
 20 21  2  0
 20 22  1  0
 21 23  1  0
 21 26  1  0
 22 24  2  0
 23 25  2  0
 24 25  1  0
 26 30  1  0
 28 29  1  0
 30 31  1  0
M  END

$$$$

     RDKit          3D

 31 32  0  0  0  0  0  0  0  0999 V2000
    0.0000    0.0000    0.0000 C   0  0  0  0  0  0  0  0  0  0  0  0
    0.0000    0.0000    1.3862 C   0  0  0  0  0  0  0  0  0  0  0  0
    1.3685    0.0000    1.9171 C   0  0  0  0  0  0  0  0  0  0  0  0
    1.0465    0.1031   -0.8419 C   0  0  0  0  0  0  0  0  0  0  0  0
    2.2866    0.2252   -0.1993 C   0  0  0  0  0  0  0  0  0  0  0  0
    2.4926    0.1883    1.1236 N   0  0  0  0  0  0  0  0  0  0  0  0
    1.4204   -0.1254    3.2418 N   0  0  0  0  0  0  0  0  0  0  0  0
   -1.3046    0.0000    2.0589 C   0  0  0  0  0  0  0  0  0  0  0  0
   -2.3138   -0.4180    1.4956 O   0  0  0  0  0  0  0  0  0  0  0  0
    2.7076   -0.0834    3.8924 C   0  0  0  0  0  0  0  0  0  0  0  0
    3.4272    0.3916   -0.9549 N   0  0  0  0  0  0  0  0  0  0  0  0
    3.6133   -0.2471   -2.2539 C   0  0  0  0  0  0  0  0  0  0  0  0
    4.2590    1.5892   -0.7861 C   0  0  0  0  0  0  0  0  0  0  0  0
    3.0354    1.3058    4.4615 C   0  0  0  0  0  0  0  0  0  0  0  0
   -1.4766    0.7165    3.3577 C   0  0  0  0  0  0  0  0  0  0  0  0
    4.7110    1.9152   -2.2181 C   0  0  0  0  0  0  0  0  0  0  0  0
    5.0628    3.3995   -2.3037 C   0  0  0  0  0  0  0  0  0  0  0  0
    5.0894   -0.4363   -2.6366 C   0  0  0  0  0  0  0  0  0  0  0  0
    4.4201    1.3110    5.0864 C   0  0  0  0  0  0  0  0  0  0  0  0
    3.5272    2.8157   -0.2192 C   0  0  0  0  0  0  0  0  0  0  0  0
    2.1649    3.0015   -0.8446 C   0  0  0  0  0  0  0  0  0  0  0  0
    1.0257    3.3526   -0.0761 C   0  0  0  0  0  0  0  0  0  0  0  0
    1.8782    2.8766   -2.2114 C   0  0  0  0  0  0  0  0  0  0  0  0
   -0.2207    3.3355   -0.5449 N   0  0  0  0  0  0  0  0  0  0  0  0
    0.6188    2.8576   -2.6889 N   0  0  0  0  0  0  0  0  0  0  0  0
   -0.3536    3.0243   -1.7940 C   0  0  0  0  0  0  0  0  0  0  0  0
    1.2208    3.6761    1.1850 O   0  0  0  0  0  0  0  0  0  0  0  0
    5.8252    0.1135   -1.3827 C   0  0  0  0  0  0  0  0  0  0  0  0
    0.1282    4.0014    2.0964 C   0  0  0  0  0  0  0  0  0  0  0  0
    0.8622    4.2381    3.4153 C   0  0  0  0  0  0  0  0  0  0  0  0
   -0.8211    2.8214    2.2156 C   0  0  0  0  0  0  0  0  0  0  0  0
  1  2  2  0
  1  4  1  0
  2  3  1  0
  2  8  1  0
  3  6  2  0
  3  7  1  0
  4  5  2  0
  5  6  1  0
  5 11  1  0
  7 10  1  0
  8  9  2  0
  8 15  1  0
 10 14  1  0
 11 12  1  0
 11 13  1  0
 12 18  1  0
 13 16  1  0
 13 20  1  0
 14 19  1  0
 16 17  1  0
 18 28  1  0
 20 21  1  0
 21 22  2  0
 21 23  1  0
 22 24  1  0
 22 27  1  0
 23 25  2  0
 24 26  2  0
 25 26  1  0
 27 29  1  0
 29 30  1  0
 29 31  1  0
M  END

$$$$
