
     RDKit          3D

 26 30  0  0  0  0  0  0  0  0999 V2000
    0.0000    0.0000    0.0000 C   0  0  0  0  0  0  0  0  0  0  0  0
    0.0000    0.0000    1.3393 N   0  0  0  0  0  0  0  0  0  0  0  0
    1.1813    0.0000    1.9376 C   0  0  0  0  0  0  0  0  0  0  0  0
    1.0823   -0.1605   -0.7858 N   0  0  0  0  0  0  0  0  0  0  0  0
    2.2780   -0.2193   -0.1684 C   0  0  0  0  0  0  0  0  0  0  0  0
    2.4233   -0.1811    1.2257 C   0  0  0  0  0  0  0  0  0  0  0  0
    3.3691   -0.1535    2.2603 C   0  0  0  0  0  0  0  0  0  0  0  0
    2.7742    0.1521    3.5295 C   0  0  0  0  0  0  0  0  0  0  0  0
    4.7895   -0.4398    2.1810 C   0  0  0  0  0  0  0  0  0  0  0  0
    1.4422    0.2693    3.3122 N   0  0  0  0  0  0  0  0  0  0  0  0
    3.3352    0.4334    4.7478 C   0  0  0  0  0  0  0  0  0  0  0  0
    5.3882   -0.0017    3.4770 C   0  0  0  0  0  0  0  0  0  0  0  0
    5.4305   -1.0334    1.3365 O   0  0  0  0  0  0  0  0  0  0  0  0
    4.7276    0.4039    4.6853 C   0  0  0  0  0  0  0  0  0  0  0  0
    6.7978   -0.1384    3.3998 C   0  0  0  0  0  0  0  0  0  0  0  0
    7.4546    0.1837    4.5493 C   0  0  0  0  0  0  0  0  0  0  0  0
    6.9203    0.6202    5.7608 C   0  0  0  0  0  0  0  0  0  0  0  0
    7.3847    0.9265    6.9876 N   0  0  0  0  0  0  0  0  0  0  0  0
    6.4420    1.2545    7.8345 C   0  0  0  0  0  0  0  0  0  0  0  0
    6.4296    1.6637    9.5184 S   0  0  0  0  0  0  0  0  0  0  0  0
    8.2464    1.5173    9.6033 C   0  0  0  0  0  0  0  0  0  0  0  0
    5.5412    0.6898    5.6393 C   0  0  0  0  0  0  0  0  0  0  0  0
    5.4158    1.0671    6.9425 N   0  0  0  0  0  0  0  0  0  0  0  0
   -1.1915    0.1173   -0.6174 N   0  0  0  0  0  0  0  0  0  0  0  0
   -2.4207   -0.1272    0.0289 N   0  0  0  0  0  0  0  0  0  0  0  0
    9.0022    2.7071    9.0607 C   0  0  0  0  0  0  0  0  0  0  0  0
  1  2  2  0
  1  4  1  0
  1 24  1  0
  2  3  1  0
  3  6  1  0
  3 10  2  0
  4  5  2  0
  5  6  1  0
  6  7  2  0
  7  8  1  0
  7  9  1  0
  8 10  1  0
  8 11  2  0
  9 12  1  0
  9 13  2  0
 11 14  1  0
 12 14  1  0
 12 15  1  0
 14 22  2  0
 15 16  2  0
 16 17  1  0
 17 18  2  0
 17 22  1  0
 18 19  1  0
 19 20  1  0
 19 23  2  0
 20 21  1  0
 21 26  1  0
 22 23  1  0
 24 25  1  0
M  END

$$$$

     RDKit          3D

 31 33  0  0  0  0  0  0  0  0999 V2000
    0.0000    0.0000    0.0000 C   0  0  0  0  0  0  0  0  0  0  0  0
    0.0000    0.0000    1.3548 N   0  0  0  0  0  0  0  0  0  0  0  0
    1.2373    0.0000    1.9065 C   0  0  0  0  0  0  0  0  0  0  0  0
    1.0405   -0.1025   -0.8371 N   0  0  0  0  0  0  0  0  0  0  0  0
    2.2173   -0.1025   -0.2302 C   0  0  0  0  0  0  0  0  0  0  0  0
    2.4302   -0.0676    1.1391 C   0  0  0  0  0  0  0  0  0  0  0  0
    3.3952    0.0044    2.1982 C   0  0  0  0  0  0  0  0  0  0  0  0
    4.7793   -0.0570    2.0434 C   0  0  0  0  0  0  0  0  0  0  0  0
    2.8269    0.0482    3.4881 C   0  0  0  0  0  0  0  0  0  0  0  0
    5.3557    0.0995    3.2767 C   0  0  0  0  0  0  0  0  0  0  0  0
    3.4134    0.1756    4.7553 C   0  0  0  0  0  0  0  0  0  0  0  0
    1.4992   -0.0455    3.2810 O   0  0  0  0  0  0  0  0  0  0  0  0
    4.8082    0.2326    4.5345 C   0  0  0  0  0  0  0  0  0  0  0  0
    3.3702   -0.1662   -1.2308 C   0  0  0  0  0  0  0  0  0  0  0  0
   -1.2624    0.0620   -0.7297 C   0  0  0  0  0  0  0  0  0  0  0  0
   -1.3490   -0.6125   -1.9285 C   0  0  0  0  0  0  0  0  0  0  0  0
   -2.4397    0.8487   -0.2291 C   0  0  0  0  0  0  0  0  0  0  0  0
   -2.3682   -0.5237   -2.7451 O   0  0  0  0  0  0  0  0  0  0  0  0
   -3.6592   -0.0904   -0.0126 C   0  0  0  0  0  0  0  0  0  0  0  0
    6.7061    0.0949    3.1677 F   0  0  0  0  0  0  0  0  0  0  0  0
   -2.7992    1.8372   -1.1684 O   0  0  0  0  0  0  0  0  0  0  0  0
   -4.4428   -0.3224   -1.1421 O   0  0  0  0  0  0  0  0  0  0  0  0
   -3.8626    2.6812   -0.7869 C   0  0  0  0  0  0  0  0  0  0  0  0
   -0.1979   -1.4723   -2.3659 C   0  0  0  0  0  0  0  0  0  0  0  0
   -3.8926    3.2612    0.2964 O   0  0  0  0  0  0  0  0  0  0  0  0
    0.2794   -2.3341   -1.1751 C   0  0  0  0  0  0  0  0  0  0  0  0
    4.4367    0.4859   -0.7718 F   0  0  0  0  0  0  0  0  0  0  0  0
   -0.7728   -3.3831   -0.7828 C   0  0  0  0  0  0  0  0  0  0  0  0
    1.5398   -3.1237   -1.5248 C   0  0  0  0  0  0  0  0  0  0  0  0
   -4.8092    2.8738   -1.7368 N   0  0  0  0  0  0  0  0  0  0  0  0
   -4.8197    2.2449   -3.0261 C   0  0  0  0  0  0  0  0  0  0  0  0
  1  2  2  0
  1  4  1  0
  1 15  1  0
  2  3  1  0
  3  6  2  0
  3 12  1  0
  4  5  2  0
  5  6  1  0
  5 14  1  0
  6  7  1  0
  7  8  2  0
  7  9  1  0
  8 10  1  0
  9 11  2  0
  9 12  1  0
 10 13  2  0
 10 20  1  0
 11 13  1  0
 14 27  1  0
 15 16  2  3
 15 17  1  0
 16 18  1  0
 16 24  1  0
 17 19  1  0
 17 21  1  0
 19 22  1  0
 21 23  1  0
 23 25  2  0
 23 30  1  0
 24 26  1  0
 26 28  1  0
 26 29  1  0
 30 31  1  0
M  END

$$$$

     RDKit          3D

 18 19  0  0  0  0  0  0  0  0999 V2000
    0.0000    0.0000    0.0000 N   0  0  0  0  0  0  0  0  0  0  0  0
    0.0000    0.0000    1.3470 C   0  0  0  0  0  0  0  0  0  0  0  0
    1.1556    0.0000    2.0836 C   0  0  0  0  0  0  0  0  0  0  0  0
    1.1616    0.0571   -0.5331 C   0  0  0  0  0  0  0  0  0  0  0  0
    2.4074    0.0571    0.0379 N   0  0  0  0  0  0  0  0  0  0  0  0
    2.4079    0.0456    1.3320 C   0  0  0  0  0  0  0  0  0  0  0  0
    1.2159    0.0079   -1.9658 N   0  0  0  0  0  0  0  0  0  0  0  0
    1.7075   -1.3528   -2.3995 C   0  0  0  0  0  0  0  0  0  0  0  0
    0.9855   -2.4771   -1.6951 C   0  0  0  0  0  0  0  0  0  0  0  0
    1.6339   -3.0487   -0.5911 C   0  0  0  0  0  0  0  0  0  0  0  0
   -0.2790   -2.8787   -2.0685 C   0  0  0  0  0  0  0  0  0  0  0  0
    0.9916   -4.0443    0.1130 C   0  0  0  0  0  0  0  0  0  0  0  0
   -0.9554   -3.8368   -1.3000 C   0  0  0  0  0  0  0  0  0  0  0  0
   -0.2699   -4.5249   -0.2018 C   0  0  0  0  0  0  0  0  0  0  0  0
   -2.2084   -4.1118   -1.7355 O   0  0  0  0  0  0  0  0  0  0  0  0
   -3.1789   -4.5232   -0.7745 C   0  0  0  0  0  0  0  0  0  0  0  0
   -1.0487   -5.7295    0.7529 Cl  0  0  0  0  0  0  0  0  0  0  0  0
   -3.3169   -3.5625    0.3942 C   0  0  0  0  0  0  0  0  0  0  0  0
  1  2  2  0
  1  4  1  0
  2  3  1  0
  3  6  2  0
  4  5  2  0
  4  7  1  0
  5  6  1  0
  7  8  1  0
  8  9  1  0
  9 10  2  0
  9 11  1  0
 10 12  1  0
 11 13  2  0
 12 14  2  0
 13 14  1  0
 13 15  1  0
 14 17  1  0
 15 16  1  0
 16 18  1  0
M  END

$$$$

     RDKit          3D

 30 33  0  0  0  0  0  0  0  0999 V2000
    0.0000    0.0000    0.0000 N   0  0  0  0  0  0  0  0  0  0  0  0
    0.0000    0.0000    1.3704 C   0  0  0  0  0  0  0  0  0  0  0  0
    1.1111    0.0000    2.1045 C   0  0  0  0  0  0  0  0  0  0  0  0
    1.1836    0.0000   -0.6104 C   0  0  0  0  0  0  0  0  0  0  0  0
    2.3094    0.0000    0.1151 N   0  0  0  0  0  0  0  0  0  0  0  0
    2.3094    0.0000    1.4468 C   0  0  0  0  0  0  0  0  0  0  0  0
   -1.2704    0.0000    1.8843 O   0  0  0  0  0  0  0  0  0  0  0  0
   -1.6051    0.0530    3.1800 C   0  0  0  0  0  0  0  0  0  0  0  0
   -0.6948    0.2323    4.1140 N   0  0  0  0  0  0  0  0  0  0  0  0
   -2.9976   -0.0140    3.5184 C   0  0  0  0  0  0  0  0  0  0  0  0
   -1.1527    0.3192    5.3615 C   0  0  0  0  0  0  0  0  0  0  0  0
   -3.4020    0.0887    4.8655 C   0  0  0  0  0  0  0  0  0  0  0  0
   -3.9907   -0.1908    2.5444 C   0  0  0  0  0  0  0  0  0  0  0  0
   -2.3799    0.3107    5.7949 N   0  0  0  0  0  0  0  0  0  0  0  0
   -4.7371    0.0925    5.3194 C   0  0  0  0  0  0  0  0  0  0  0  0
   -5.2735   -0.1861    2.9800 C   0  0  0  0  0  0  0  0  0  0  0  0
   -5.6325   -0.0179    4.2776 C   0  0  0  0  0  0  0  0  0  0  0  0
    1.3090    0.0519   -1.9351 N   0  0  0  0  0  0  0  0  0  0  0  0
   -6.3141   -0.2945    2.1317 O   0  0  0  0  0  0  0  0  0  0  0  0
   -6.9504    0.0211    4.5130 O   0  0  0  0  0  0  0  0  0  0  0  0
   -7.6619    0.2329    5.7311 C   0  0  0  0  0  0  0  0  0  0  0  0
   -9.1594    0.4803    5.4912 C   0  0  0  0  0  0  0  0  0  0  0  0
   -7.1761    1.5373    6.4026 C   0  0  0  0  0  0  0  0  0  0  0  0
   -7.2554    1.6367    7.5903 O   0  0  0  0  0  0  0  0  0  0  0  0
   -6.1678   -0.4813    0.7579 C   0  0  0  0  0  0  0  0  0  0  0  0
   -6.7101    0.4004   -0.1402 C   0  0  0  0  0  0  0  0  0  0  0  0
   -5.4919   -1.5921    0.2552 C   0  0  0  0  0  0  0  0  0  0  0  0
   -6.6338    0.2308   -1.5059 C   0  0  0  0  0  0  0  0  0  0  0  0
   -5.4151   -1.7598   -1.1106 C   0  0  0  0  0  0  0  0  0  0  0  0
   -5.9812   -0.8788   -2.0198 C   0  0  0  0  0  0  0  0  0  0  0  0
  1  2  2  0
  1  4  1  0
  2  3  1  0
  2  7  1  0
  3  6  2  0
  4  5  2  0
  4 18  1  0
  5  6  1  0
  7  8  1  0
  8  9  2  0
  8 10  1  0
  9 11  1  0
 10 12  2  0
 10 13  1  0
 11 14  2  0
 12 14  1  0
 12 15  1  0
 13 16  2  0
 15 17  2  0
 16 17  1  0
 16 19  1  0
 17 20  1  0
 19 25  1  0
 20 21  1  0
 21 22  1  0
 21 23  1  0
 23 24  2  0
 25 26  2  0
 25 27  1  0
 26 28  1  0
 27 29  2  0
 28 30  2  0
 29 30  1  0
M  END

$$$$

     RDKit          3D

 11 11  0  0  0  0  0  0  0  0999 V2000
    0.0000    0.0000    0.0000 C   0  0  0  0  0  0  0  0  0  0  0  0
    0.0000    0.0000    1.4183 C   0  0  0  0  0  0  0  0  0  0  0  0
    1.2548    0.0000    1.9290 C   0  0  0  0  0  0  0  0  0  0  0  0
    1.1323    0.0000   -0.7296 N   0  0  0  0  0  0  0  0  0  0  0  0
    2.2694    0.0000   -0.1433 C   0  0  0  0  0  0  0  0  0  0  0  0
    2.3974    0.0000    1.1823 N   0  0  0  0  0  0  0  0  0  0  0  0
   -1.0991    0.0540   -0.7903 N   0  0  0  0  0  0  0  0  0  0  0  0
   -2.3247   -0.1278   -0.1513 N   0  0  0  0  0  0  0  0  0  0  0  0
   -1.1702   -0.2302   -2.2031 C   0  0  0  0  0  0  0  0  0  0  0  0
   -1.7507   -1.6175   -2.4728 C   0  0  0  0  0  0  0  0  0  0  0  0
   -0.8659   -2.7160   -1.9086 C   0  0  0  0  0  0  0  0  0  0  0  0
  1  2  2  0
  1  4  1  0
  1  7  1  0
  2  3  1  0
  3  6  2  0
  4  5  2  0
  5  6  1  0
  7  8  1  0
  7  9  1  0
  9 10  1  0
 10 11  1  0
M  END

$$$$

     RDKit          3D

 31 34  0  0  0  0  0  0  0  0999 V2000
    0.0000    0.0000    0.0000 N   0  0  0  0  0  0  0  0  0  0  0  0
    0.0000    0.0000    1.3393 C   0  0  0  0  0  0  0  0  0  0  0  0
    1.1115    0.0000    2.1275 C   0  0  0  0  0  0  0  0  0  0  0  0
    1.1771    0.1746   -0.5454 C   0  0  0  0  0  0  0  0  0  0  0  0
    2.4456    0.3628    0.1159 N   0  0  0  0  0  0  0  0  0  0  0  0
    2.2682    0.2230    1.4596 C   0  0  0  0  0  0  0  0  0  0  0  0
    3.5756    0.9605   -0.4983 C   0  0  0  0  0  0  0  0  0  0  0  0
    4.8350    0.4171   -0.6333 C   0  0  0  0  0  0  0  0  0  0  0  0
    3.1854    2.1938   -1.1560 C   0  0  0  0  0  0  0  0  0  0  0  0
    5.9391    1.0943   -1.1269 N   0  0  0  0  0  0  0  0  0  0  0  0
    4.3397    2.7716   -1.7034 N   0  0  0  0  0  0  0  0  0  0  0  0
    2.1396    2.7606   -1.2643 O   0  0  0  0  0  0  0  0  0  0  0  0
    5.6195    2.3483   -1.5778 C   0  0  0  0  0  0  0  0  0  0  0  0
    7.2294    0.7894   -1.4051 N   0  0  0  0  0  0  0  0  0  0  0  0
    7.1671    2.8826   -2.1757 S   0  0  0  0  0  0  0  0  0  0  0  0
    8.0323    1.6532   -1.9200 C   0  0  0  0  0  0  0  0  0  0  0  0
    0.9420   -0.2536    3.5980 C   0  0  0  0  0  0  0  0  0  0  0  0
    5.0377   -0.8541   -0.1865 N   0  0  0  0  0  0  0  0  0  0  0  0
    9.6736    1.6573   -2.4759 S   0  0  0  0  0  0  0  0  0  0  0  0
    9.5654   -0.1664   -2.8048 C   0  0  0  0  0  0  0  0  0  0  0  0
    1.3181   -1.7086    3.9583 C   0  0  0  0  0  0  0  0  0  0  0  0
    1.2839    0.2386   -1.7612 O   0  0  0  0  0  0  0  0  0  0  0  0
    0.7200   -2.6196    3.0760 O   0  0  0  0  0  0  0  0  0  0  0  0
    1.1686   -3.9366    2.9885 C   0  0  0  0  0  0  0  0  0  0  0  0
    0.7257   -4.7187    1.9019 C   0  0  0  0  0  0  0  0  0  0  0  0
    2.0588   -4.4538    3.9403 C   0  0  0  0  0  0  0  0  0  0  0  0
    1.1099   -6.0633    1.7987 C   0  0  0  0  0  0  0  0  0  0  0  0
    2.3837   -5.7672    3.7788 C   0  0  0  0  0  0  0  0  0  0  0  0
    1.9789   -6.6093    2.7422 C   0  0  0  0  0  0  0  0  0  0  0  0
   -0.0579   -4.3196    0.8713 O   0  0  0  0  0  0  0  0  0  0  0  0
   -0.1573   -2.9373    0.5339 C   0  0  0  0  0  0  0  0  0  0  0  0
  1  2  2  0
  1  4  1  0
  2  3  1  0
  3  6  2  0
  3 17  1  0
  4  5  1  0
  4 22  2  0
  5  6  1  0
  5  7  1  0
  7  8  2  0
  7  9  1  0
  8 10  1  0
  8 18  1  0
  9 11  1  0
  9 12  2  0
 10 13  1  0
 10 14  1  0
 11 13  2  0
 13 15  1  0
 14 16  2  0
 15 16  1  0
 16 19  1  0
 17 21  1  0
 19 20  1  0
 21 23  1  0
 23 24  1  0
 24 25  2  0
 24 26  1  0
 25 27  1  0
 25 30  1  0
 26 28  2  0
 27 29  2  0
 28 29  1  0
 30 31  1  0
M  END

$$$$

     RDKit          3D

 31 34  0  0  0  0  0  0  0  0999 V2000
    0.0000    0.0000    0.0000 N   0  0  0  0  0  0  0  0  0  0  0  0
    0.0000    0.0000    1.3393 C   0  0  0  0  0  0  0  0  0  0  0  0
    1.1115    0.0000    2.1275 C   0  0  0  0  0  0  0  0  0  0  0  0
    1.1771    0.1746   -0.5454 C   0  0  0  0  0  0  0  0  0  0  0  0
    2.4456    0.3628    0.1159 N   0  0  0  0  0  0  0  0  0  0  0  0
    2.2682    0.2230    1.4596 C   0  0  0  0  0  0  0  0  0  0  0  0
    3.3687    0.2111    2.2629 N   0  0  0  0  0  0  0  0  0  0  0  0
    2.7884    0.0021    3.5042 C   0  0  0  0  0  0  0  0  0  0  0  0
    1.4036   -0.0584    3.4901 N   0  0  0  0  0  0  0  0  0  0  0  0
    3.5108   -0.1101    4.4661 O   0  0  0  0  0  0  0  0  0  0  0  0
    3.2904    1.5186   -0.1673 C   0  0  0  0  0  0  0  0  0  0  0  0
    1.2178    0.2295   -1.8830 N   0  0  0  0  0  0  0  0  0  0  0  0
    0.4009   -0.3034    4.4627 C   0  0  0  0  0  0  0  0  0  0  0  0
   -0.3996    0.6872    5.0098 C   0  0  0  0  0  0  0  0  0  0  0  0
    0.4501   -1.5659    5.0520 C   0  0  0  0  0  0  0  0  0  0  0  0
   -1.4230    0.4898    5.9237 C   0  0  0  0  0  0  0  0  0  0  0  0
   -0.5168   -1.7413    6.0296 C   0  0  0  0  0  0  0  0  0  0  0  0
   -1.5766   -0.8273    6.3277 C   0  0  0  0  0  0  0  0  0  0  0  0
   -2.2876    1.5806    6.4404 C   0  0  0  0  0  0  0  0  0  0  0  0
   -3.2876    1.4309    7.0889 O   0  0  0  0  0  0  0  0  0  0  0  0
    2.3149    0.4646   -2.7901 C   0  0  0  0  0  0  0  0  0  0  0  0
    1.4327   -2.6791    4.7751 C   0  0  0  0  0  0  0  0  0  0  0  0
    2.5479   -2.6376    5.8314 C   0  0  0  0  0  0  0  0  0  0  0  0
    3.3922    2.4473    1.0306 C   0  0  0  0  0  0  0  0  0  0  0  0
    4.5808    2.9319    1.5325 C   0  0  0  0  0  0  0  0  0  0  0  0
    2.2070    2.8103    1.6861 C   0  0  0  0  0  0  0  0  0  0  0  0
    4.6273    3.7427    2.6656 C   0  0  0  0  0  0  0  0  0  0  0  0
    2.1748    3.6017    2.8139 C   0  0  0  0  0  0  0  0  0  0  0  0
    3.4196    4.0171    3.2339 C   0  0  0  0  0  0  0  0  0  0  0  0
    2.0383   -2.5321    3.5191 O   0  0  0  0  0  0  0  0  0  0  0  0
   -1.7512    2.7847    6.0957 O   0  0  0  0  0  0  0  0  0  0  0  0
  1  2  1  0
  1  4  2  0
  2  3  2  0
  3  6  1  0
  3  9  1  0
  4  5  1  0
  4 12  1  0
  5  6  1  0
  5 11  1  0
  6  7  2  0
  7  8  1  0
  8  9  1  0
  8 10  2  0
  9 13  1  0
 11 24  1  0
 12 21  1  0
 13 14  2  0
 13 15  1  0
 14 16  1  0
 15 17  2  0
 15 22  1  0
 16 18  2  0
 16 19  1  0
 17 18  1  0
 19 20  2  0
 19 31  1  0
 22 23  1  0
 22 30  1  0
 24 25  2  0
 24 26  1  0
 25 27  1  0
 26 28  2  0
 27 29  2  0
 28 29  1  0
M  END

$$$$

     RDKit          3D

 23 25  0  0  0  0  0  0  0  0999 V2000
    0.0000    0.0000    0.0000 C   0  0  0  0  0  0  0  0  0  0  0  0
    0.0000    0.0000    1.3941 C   0  0  0  0  0  0  0  0  0  0  0  0
    1.2403    0.0000    2.0481 C   0  0  0  0  0  0  0  0  0  0  0  0
    1.2128   -0.0596   -0.7011 N   0  0  0  0  0  0  0  0  0  0  0  0
    2.3568   -0.1158    0.0370 C   0  0  0  0  0  0  0  0  0  0  0  0
    2.4243   -0.0003    1.3929 N   0  0  0  0  0  0  0  0  0  0  0  0
    3.8058   -0.3430   -0.7305 S   0  0  0  0  0  0  0  0  0  0  0  0
   -1.3065   -0.0642    2.1493 C   0  0  0  0  0  0  0  0  0  0  0  0
   -1.1130    0.0000   -0.7172 N   0  0  0  0  0  0  0  0  0  0  0  0
    1.2886    0.0483    3.3857 N   0  0  0  0  0  0  0  0  0  0  0  0
   -2.3090    0.8444    1.6021 N   0  0  0  0  0  0  0  0  0  0  0  0
   -1.9045    2.2309    1.8116 C   0  0  0  0  0  0  0  0  0  0  0  0
   -3.6603    0.6137    2.1029 C   0  0  0  0  0  0  0  0  0  0  0  0
   -4.6127    1.5869    1.4099 C   0  0  0  0  0  0  0  0  0  0  0  0
   -2.9071    3.1246    1.1017 C   0  0  0  0  0  0  0  0  0  0  0  0
    1.2670   -0.0104   -2.1338 C   0  0  0  0  0  0  0  0  0  0  0  0
    1.2634    1.2506   -2.7094 C   0  0  0  0  0  0  0  0  0  0  0  0
    1.1964   -1.1962   -2.8483 C   0  0  0  0  0  0  0  0  0  0  0  0
    1.2668    1.2470   -4.0876 C   0  0  0  0  0  0  0  0  0  0  0  0
    1.1950   -1.1945   -4.2344 C   0  0  0  0  0  0  0  0  0  0  0  0
    1.2734    0.0802   -4.8358 C   0  0  0  0  0  0  0  0  0  0  0  0
   -4.2361    2.9207    1.6705 O   0  0  0  0  0  0  0  0  0  0  0  0
    1.2161    0.0137   -6.5468 Cl  0  0  0  0  0  0  0  0  0  0  0  0
  1  2  1  0
  1  4  1  0
  1  9  2  0
  2  3  2  0
  2  8  1  0
  3  6  1  0
  3 10  1  0
  4  5  1  0
  4 16  1  0
  5  6  2  0
  5  7  1  0
  8 11  1  0
 11 12  1  0
 11 13  1  0
 12 15  1  0
 13 14  1  0
 14 22  1  0
 15 22  1  0
 16 17  2  0
 16 18  1  0
 17 19  1  0
 18 20  2  0
 19 21  2  0
 20 21  1  0
 21 23  1  0
M  END

$$$$

     RDKit          3D

 30 31  0  0  0  0  0  0  0  0999 V2000
    0.0000    0.0000    0.0000 N   0  0  0  0  0  0  0  0  0  0  0  0
    0.0000    0.0000    1.3317 C   0  0  0  0  0  0  0  0  0  0  0  0
    1.0252    0.0000    2.1935 N   0  0  0  0  0  0  0  0  0  0  0  0
    1.2831    0.0630   -0.4542 C   0  0  0  0  0  0  0  0  0  0  0  0
    2.4402    0.0062    0.2924 C   0  0  0  0  0  0  0  0  0  0  0  0
    2.1287   -0.0157    1.6106 C   0  0  0  0  0  0  0  0  0  0  0  0
    1.3293    0.1923   -1.7942 O   0  0  0  0  0  0  0  0  0  0  0  0
   -1.1933    0.1175   -0.7726 C   0  0  0  0  0  0  0  0  0  0  0  0
   -1.6202   -0.7341   -1.7250 C   0  0  0  0  0  0  0  0  0  0  0  0
   -2.9265   -0.4581   -2.3746 C   0  0  0  0  0  0  0  0  0  0  0  0
   -3.4522    0.6294   -2.3993 O   0  0  0  0  0  0  0  0  0  0  0  0
   -0.9666   -1.9199   -2.0569 N   0  0  0  0  0  0  0  0  0  0  0  0
   -0.4546   -1.8932   -3.4413 C   0  0  0  0  0  0  0  0  0  0  0  0
   -3.4637   -1.4962   -2.9803 O   0  0  0  0  0  0  0  0  0  0  0  0
   -4.6923   -1.3464   -3.6892 C   0  0  0  0  0  0  0  0  0  0  0  0
   -0.5194   -2.9047   -1.2153 C   0  0  0  0  0  0  0  0  0  0  0  0
    0.2171   -3.7928   -1.6180 O   0  0  0  0  0  0  0  0  0  0  0  0
    0.5673   -0.9533   -3.5672 O   0  0  0  0  0  0  0  0  0  0  0  0
   -1.0082   -2.7622    0.1885 C   0  0  0  0  0  0  0  0  0  0  0  0
    0.1063   -3.2241   -3.7855 C   0  0  0  0  0  0  0  0  0  0  0  0
    1.4393   -3.4597   -3.8389 C   0  0  0  0  0  0  0  0  0  0  0  0
   -0.9404   -4.5637   -4.1215 S   0  0  0  0  0  0  0  0  0  0  0  0
    1.6291   -4.8329   -4.1385 C   0  0  0  0  0  0  0  0  0  0  0  0
    0.4819   -5.5524   -4.3147 C   0  0  0  0  0  0  0  0  0  0  0  0
    0.2840   -6.9790   -4.7090 C   0  0  0  0  0  0  0  0  0  0  0  0
    3.0502   -5.3166   -4.1853 C   0  0  0  0  0  0  0  0  0  0  0  0
    3.3926   -5.9490   -2.8570 C   0  0  0  0  0  0  0  0  0  0  0  0
    3.4770   -7.2760   -2.6966 C   0  0  0  0  0  0  0  0  0  0  0  0
    3.7682   -7.8567   -1.3425 C   0  0  0  0  0  0  0  0  0  0  0  0
    3.3241   -8.1489   -3.7111 O   0  0  0  0  0  0  0  0  0  0  0  0
  1  2  1  0
  1  4  1  0
  1  8  1  0
  2  3  1  0
  3  6  2  0
  4  5  2  0
  4  7  1  0
  5  6  2  0
  8  9  2  3
  9 10  1  0
  9 12  1  0
 10 11  2  0
 10 14  1  0
 12 13  1  0
 12 16  1  0
 13 18  1  0
 13 20  1  0
 14 15  1  0
 16 17  2  0
 16 19  1  0
 20 21  2  0
 20 22  1  0
 21 23  1  0
 22 24  1  0
 23 24  2  0
 23 26  1  0
 24 25  1  0
 26 27  1  0
 27 28  2  3
 28 29  1  0
 28 30  1  0
M  END

$$$$

     RDKit          3D

 28 29  0  0  0  0  0  0  0  0999 V2000
    0.0000    0.0000    0.0000 N   0  0  0  0  0  0  0  0  0  0  0  0
    0.0000    0.0000    1.2867 C   0  0  0  0  0  0  0  0  0  0  0  0
    1.0135    0.0000    2.1388 N   0  0  0  0  0  0  0  0  0  0  0  0
    1.1915    0.1173   -0.6174 C   0  0  0  0  0  0  0  0  0  0  0  0
    2.2656    0.1701    0.1550 C   0  0  0  0  0  0  0  0  0  0  0  0
    2.2700    0.1206    1.4044 C   0  0  0  0  0  0  0  0  0  0  0  0
    3.1859    0.3048    2.3534 O   0  0  0  0  0  0  0  0  0  0  0  0
    0.9305    0.1604   -2.3301 S   0  0  0  0  0  0  0  0  0  0  0  0
    2.6401   -0.0979   -2.9756 C   0  0  0  0  0  0  0  0  0  0  0  0
    2.6634   -1.2604   -3.9802 C   0  0  0  0  0  0  0  0  0  0  0  0
    1.9494   -2.5495   -3.5143 C   0  0  0  0  0  0  0  0  0  0  0  0
    2.1891   -0.6506   -5.2983 C   0  0  0  0  0  0  0  0  0  0  0  0
    2.1697   -2.6676   -2.0247 C   0  0  0  0  0  0  0  0  0  0  0  0
    1.2841   -2.7270   -1.1947 O   0  0  0  0  0  0  0  0  0  0  0  0
    4.4948    0.6343    2.0746 C   0  0  0  0  0  0  0  0  0  0  0  0
    5.2349    0.9298    3.2184 C   0  0  0  0  0  0  0  0  0  0  0  0
    5.1628    0.5817    0.8792 C   0  0  0  0  0  0  0  0  0  0  0  0
    6.5860    1.2310    3.1451 C   0  0  0  0  0  0  0  0  0  0  0  0
    6.5372    0.8994    0.7327 C   0  0  0  0  0  0  0  0  0  0  0  0
    7.1500    1.2175    1.8527 C   0  0  0  0  0  0  0  0  0  0  0  0
    3.4293   -2.7719   -1.6563 O   0  0  0  0  0  0  0  0  0  0  0  0
    3.7743   -2.8347   -0.2653 C   0  0  0  0  0  0  0  0  0  0  0  0
    2.4995   -3.7047   -4.3651 C   0  0  0  0  0  0  0  0  0  0  0  0
    7.1711    0.7858   -0.4680 O   0  0  0  0  0  0  0  0  0  0  0  0
    8.5031    1.1189   -0.7521 C   0  0  0  0  0  0  0  0  0  0  0  0
    7.2712    1.4631    4.2814 N   0  0  0  0  0  0  0  0  0  0  0  0
    3.2861    0.4111   -5.2356 C   0  0  0  0  0  0  0  0  0  0  0  0
    4.5847   -0.4182   -5.1162 C   0  0  0  0  0  0  0  0  0  0  0  0
  1  2  2  0
  1  4  1  0
  2  3  1  0
  3  6  2  0
  4  5  2  0
  4  8  1  0
  5  6  1  0
  6  7  1  0
  7 15  1  0
  8  9  1  0
  9 10  1  0
 10 11  1  0
 10 12  1  0
 11 13  1  0
 11 23  1  0
 12 27  1  0
 13 14  2  0
 13 21  1  0
 15 16  2  0
 15 17  1  0
 16 18  1  0
 17 19  2  0
 18 20  2  0
 18 26  1  0
 19 20  1  0
 19 24  1  0
 21 22  1  0
 24 25  1  0
 27 28  1  0
M  END

$$$$

     RDKit          3D

 23 26  0  0  0  0  0  0  0  0999 V2000
    0.0000    0.0000    0.0000 C   0  0  0  0  0  0  0  0  0  0  0  0
    0.0000    0.0000    1.3704 C   0  0  0  0  0  0  0  0  0  0  0  0
    1.0194    0.0000    2.2273 N   0  0  0  0  0  0  0  0  0  0  0  0
    1.2110    0.0000   -0.6245 C   0  0  0  0  0  0  0  0  0  0  0  0
    2.3706   -0.1142    0.1263 N   0  0  0  0  0  0  0  0  0  0  0  0
    2.1686   -0.1656    1.4887 C   0  0  0  0  0  0  0  0  0  0  0  0
    3.6787   -0.2045   -0.1064 N   0  0  0  0  0  0  0  0  0  0  0  0
    3.4165   -0.2175    1.9049 N   0  0  0  0  0  0  0  0  0  0  0  0
    4.3679   -0.3431    0.9364 N   0  0  0  0  0  0  0  0  0  0  0  0
   -1.4002    0.0000    1.9368 C   0  0  0  0  0  0  0  0  0  0  0  0
    1.2640    0.0529   -2.0904 C   0  0  0  0  0  0  0  0  0  0  0  0
    0.4324    0.7985   -2.9382 C   0  0  0  0  0  0  0  0  0  0  0  0
    2.3159   -0.6379   -2.7266 C   0  0  0  0  0  0  0  0  0  0  0  0
    0.4760    0.9195   -4.3263 C   0  0  0  0  0  0  0  0  0  0  0  0
    2.3533   -0.5184   -4.1071 C   0  0  0  0  0  0  0  0  0  0  0  0
    1.4697    0.1266   -4.8586 C   0  0  0  0  0  0  0  0  0  0  0  0
   -2.2772    0.3947    0.7383 C   0  0  0  0  0  0  0  0  0  0  0  0
   -1.4142   -0.0695   -0.5006 C   0  0  0  0  0  0  0  0  0  0  0  0
    3.2161   -1.3736   -2.0463 O   0  0  0  0  0  0  0  0  0  0  0  0
    4.2649   -2.1301   -2.6481 C   0  0  0  0  0  0  0  0  0  0  0  0
   -0.5306    1.4780   -2.2701 O   0  0  0  0  0  0  0  0  0  0  0  0
    5.0332   -2.8663   -1.6005 C   0  0  0  0  0  0  0  0  0  0  0  0
    6.3476   -2.9268   -1.5577 C   0  0  0  0  0  0  0  0  0  0  0  0
  1  2  1  0
  1  4  2  0
  1 18  1  0
  2  3  2  0
  2 10  1  0
  3  6  1  0
  4  5  1  0
  4 11  1  0
  5  6  1  0
  5  7  1  0
  6  8  2  0
  7  9  2  0
  8  9  1  0
 10 17  1  0
 11 12  2  0
 11 13  1  0
 12 14  1  0
 12 21  1  0
 13 15  2  0
 13 19  1  0
 14 16  2  0
 15 16  1  0
 17 18  1  0
 19 20  1  0
 20 22  1  0
 22 23  2  0
M  END

$$$$

     RDKit          3D

 31 33  0  0  0  0  0  0  0  0999 V2000
    0.0000    0.0000    0.0000 C   0  0  0  0  0  0  0  0  0  0  0  0
    0.0000    0.0000    1.3548 N   0  0  0  0  0  0  0  0  0  0  0  0
    1.2373    0.0000    1.9065 C   0  0  0  0  0  0  0  0  0  0  0  0
    1.0405   -0.1025   -0.8371 N   0  0  0  0  0  0  0  0  0  0  0  0
    2.2173   -0.1025   -0.2302 C   0  0  0  0  0  0  0  0  0  0  0  0
    2.4302   -0.0676    1.1391 C   0  0  0  0  0  0  0  0  0  0  0  0
    3.3881   -0.1082    2.1952 C   0  0  0  0  0  0  0  0  0  0  0  0
    2.7591   -0.0601    3.4385 C   0  0  0  0  0  0  0  0  0  0  0  0
    1.4421    0.0602    3.2267 N   0  0  0  0  0  0  0  0  0  0  0  0
    4.7577   -0.1682    1.8649 C   0  0  0  0  0  0  0  0  0  0  0  0
    5.9084   -0.2184    1.7934 N   0  0  0  0  0  0  0  0  0  0  0  0
    3.2308   -0.1282    4.8357 C   0  0  0  0  0  0  0  0  0  0  0  0
    3.3506   -0.1651   -1.2138 C   0  0  0  0  0  0  0  0  0  0  0  0
   -1.2685    0.0623   -0.4490 N   0  0  0  0  0  0  0  0  0  0  0  0
    3.7562    1.2808   -1.5790 C   0  0  0  0  0  0  0  0  0  0  0  0
    2.5115    2.0883   -1.9048 C   0  0  0  0  0  0  0  0  0  0  0  0
    1.8930    1.9986   -2.9469 O   0  0  0  0  0  0  0  0  0  0  0  0
   -1.6654    0.2500   -1.8321 C   0  0  0  0  0  0  0  0  0  0  0  0
    2.0771    2.8357   -0.8616 N   0  0  0  0  0  0  0  0  0  0  0  0
    0.7991    3.3705   -0.9059 N   0  0  0  0  0  0  0  0  0  0  0  0
    0.1791    3.6862    0.2476 C   0  0  0  0  0  0  0  0  0  0  0  0
    0.7203    3.6259    1.3339 O   0  0  0  0  0  0  0  0  0  0  0  0
   -2.2259    0.1634    0.6256 C   0  0  0  0  0  0  0  0  0  0  0  0
   -1.2666    4.1057    0.0432 C   0  0  0  0  0  0  0  0  0  0  0  0
   -1.5503    4.3184   -1.3725 N   0  0  0  0  0  0  0  0  0  0  0  0
   -1.4210   -0.0113    1.9228 C   0  0  0  0  0  0  0  0  0  0  0  0
   -2.1710    2.9678    0.5415 C   0  0  0  0  0  0  0  0  0  0  0  0
   -2.0222    5.6877   -1.5521 C   0  0  0  0  0  0  0  0  0  0  0  0
   -1.6514   -1.0785   -2.6388 C   0  0  0  0  0  0  0  0  0  0  0  0
   -1.4748    6.4846   -0.3690 C   0  0  0  0  0  0  0  0  0  0  0  0
   -0.4832   -0.9712   -3.6312 C   0  0  0  0  0  0  0  0  0  0  0  0
  1  2  1  0
  1  4  2  0
  1 14  1  0
  2  3  1  0
  2 26  1  0
  3  6  1  0
  3  9  2  0
  4  5  1  0
  5  6  2  0
  5 13  1  0
  6  7  1  0
  7  8  2  0
  7 10  1  0
  8  9  1  0
  8 12  1  0
 10 11  3  0
 13 15  1  0
 14 18  1  0
 14 23  1  0
 15 16  1  0
 16 17  2  0
 16 19  1  0
 18 29  1  0
 19 20  1  0
 20 21  1  0
 21 22  2  0
 21 24  1  0
 23 26  1  0
 24 25  1  0
 24 27  1  0
 25 28  1  0
 28 30  1  0
 29 31  1  0
M  END

$$$$

     RDKit          3D

 17 17  0  0  0  0  0  0  0  0999 V2000
    0.0000    0.0000    0.0000 C   0  0  0  0  0  0  0  0  0  0  0  0
    0.0000    0.0000    1.3393 N   0  0  0  0  0  0  0  0  0  0  0  0
    1.1552    0.0000    1.8544 C   0  0  0  0  0  0  0  0  0  0  0  0
    1.1440   -0.0562   -0.8226 C   0  0  0  0  0  0  0  0  0  0  0  0
    2.3212    0.0016   -0.0631 C   0  0  0  0  0  0  0  0  0  0  0  0
    2.4502    0.0393    1.2166 N   0  0  0  0  0  0  0  0  0  0  0  0
   -1.1719    0.0576   -0.6774 N   0  0  0  0  0  0  0  0  0  0  0  0
    0.8591   -0.0985   -2.2113 C   0  0  0  0  0  0  0  0  0  0  0  0
   -0.4858   -0.1247   -2.4284 C   0  0  0  0  0  0  0  0  0  0  0  0
   -1.2113   -0.1123   -3.7335 C   0  0  0  0  0  0  0  0  0  0  0  0
   -1.9269    1.1210   -4.0034 O   0  0  0  0  0  0  0  0  0  0  0  0
   -0.2620   -0.2999   -4.7703 N   0  0  0  0  0  0  0  0  0  0  0  0
    1.2100   -0.0548    3.3716 N   0  0  0  0  0  0  0  0  0  0  0  0
   -0.8287    0.1343   -6.0337 C   0  0  0  0  0  0  0  0  0  0  0  0
   -0.0143   -1.7217   -4.9215 C   0  0  0  0  0  0  0  0  0  0  0  0
    0.6628   -2.1378   -3.6166 C   0  0  0  0  0  0  0  0  0  0  0  0
    1.7846   -2.5625   -3.5501 O   0  0  0  0  0  0  0  0  0  0  0  0
  1  2  2  0
  1  4  1  0
  1  7  1  0
  2  3  1  0
  3  6  2  0
  3 13  1  0
  4  5  2  0
  4  8  1  0
  5  6  1  0
  8  9  2  3
  9 10  1  0
 10 11  1  0
 10 12  1  0
 12 14  1  0
 12 15  1  0
 15 16  1  0
 16 17  2  0
M  END

$$$$

     RDKit          3D

 27 30  0  0  0  0  0  0  0  0999 V2000
    0.0000    0.0000    0.0000 C   0  0  0  0  0  0  0  0  0  0  0  0
    0.0000    0.0000    1.3625 C   0  0  0  0  0  0  0  0  0  0  0  0
    1.1543    0.0000    1.9957 C   0  0  0  0  0  0  0  0  0  0  0  0
    1.1853    0.0582   -0.6852 N   0  0  0  0  0  0  0  0  0  0  0  0
    2.3255    0.0582   -0.0269 C   0  0  0  0  0  0  0  0  0  0  0  0
    2.3942    0.0004    1.3723 N   0  0  0  0  0  0  0  0  0  0  0  0
    3.5732    0.0545   -0.4469 N   0  0  0  0  0  0  0  0  0  0  0  0
    3.6923   -0.0363    1.7304 C   0  0  0  0  0  0  0  0  0  0  0  0
    4.3838    0.0032    0.6471 C   0  0  0  0  0  0  0  0  0  0  0  0
    5.8260    0.0395    0.6204 C   0  0  0  0  0  0  0  0  0  0  0  0
    6.5450    0.1325   -0.5517 C   0  0  0  0  0  0  0  0  0  0  0  0
    6.6616   -0.0723    1.8323 C   0  0  0  0  0  0  0  0  0  0  0  0
    7.8646    0.2165   -0.6208 O   0  0  0  0  0  0  0  0  0  0  0  0
    8.1056    0.0451    1.5965 C   0  0  0  0  0  0  0  0  0  0  0  0
    6.1308   -0.2011    2.9099 O   0  0  0  0  0  0  0  0  0  0  0  0
    8.5573    0.2113    0.5255 C   0  0  0  0  0  0  0  0  0  0  0  0
   -1.2339    0.0000   -0.7951 C   0  0  0  0  0  0  0  0  0  0  0  0
   -1.3906    0.7880   -1.9149 C   0  0  0  0  0  0  0  0  0  0  0  0
   -2.3243   -0.8087   -0.4445 C   0  0  0  0  0  0  0  0  0  0  0  0
   -2.5594    0.8591   -2.6715 C   0  0  0  0  0  0  0  0  0  0  0  0
   -3.5194   -0.8055   -1.1311 C   0  0  0  0  0  0  0  0  0  0  0  0
   -3.6433    0.0890   -2.2798 C   0  0  0  0  0  0  0  0  0  0  0  0
    5.9575    0.2071   -1.9226 C   0  0  0  0  0  0  0  0  0  0  0  0
   -4.5233   -1.6351   -0.7870 O   0  0  0  0  0  0  0  0  0  0  0  0
   -4.8319    0.0331   -2.9752 O   0  0  0  0  0  0  0  0  0  0  0  0
   -4.9724    0.7948   -4.1536 C   0  0  0  0  0  0  0  0  0  0  0  0
   -1.1130    0.0000    2.0798 F   0  0  0  0  0  0  0  0  0  0  0  0
  1  2  1  0
  1  4  2  0
  1 17  1  0
  2  3  2  0
  2 27  1  0
  3  6  1  0
  4  5  1  0
  5  6  1  0
  5  7  2  0
  6  8  1  0
  7  9  1  0
  8  9  2  0
  9 10  1  0
 10 11  2  0
 10 12  1  0
 11 13  1  0
 11 23  1  0
 12 14  1  0
 12 15  2  0
 13 16  1  0
 14 16  3  0
 17 18  2  0
 17 19  1  0
 18 20  1  0
 19 21  2  0
 20 22  2  0
 21 22  1  0
 21 24  1  0
 22 25  1  0
 25 26  1  0
M  END

$$$$

     RDKit          3D

  9  9  0  0  0  0  0  0  0  0999 V2000
    0.0000    0.0000    0.0000 N   0  0  0  0  0  0  0  0  0  0  0  0
    0.0000    0.0000    1.3470 C   0  0  0  0  0  0  0  0  0  0  0  0
    1.1556    0.0000    2.0836 C   0  0  0  0  0  0  0  0  0  0  0  0
    1.1616    0.0571   -0.5331 C   0  0  0  0  0  0  0  0  0  0  0  0
    2.4074    0.0571    0.0379 N   0  0  0  0  0  0  0  0  0  0  0  0
    2.4079    0.0456    1.3320 C   0  0  0  0  0  0  0  0  0  0  0  0
    1.2122    0.1129   -2.0074 N   0  0  0  0  0  0  0  0  0  0  0  0
    1.6764   -1.1535   -2.6077 C   0  0  0  0  0  0  0  0  0  0  0  0
    1.9658    1.3018   -2.4524 C   0  0  0  0  0  0  0  0  0  0  0  0
  1  2  2  0
  1  4  1  0
  2  3  1  0
  3  6  2  0
  4  5  2  0
  4  7  1  0
  5  6  1  0
  7  8  1  0
  7  9  1  0
M  END

$$$$

     RDKit          3D

 31 33  0  0  0  0  0  0  0  0999 V2000
    0.0000    0.0000    0.0000 N   0  0  0  0  0  0  0  0  0  0  0  0
    0.0000    0.0000    1.3317 C   0  0  0  0  0  0  0  0  0  0  0  0
    1.2015    0.0000    2.0700 C   0  0  0  0  0  0  0  0  0  0  0  0
    1.2041    0.0000   -0.6209 C   0  0  0  0  0  0  0  0  0  0  0  0
    2.3494   -0.0563    0.0411 N   0  0  0  0  0  0  0  0  0  0  0  0
    2.3487   -0.1160    1.3715 C   0  0  0  0  0  0  0  0  0  0  0  0
    1.0608    0.0582    3.5555 C   0  0  0  0  0  0  0  0  0  0  0  0
    1.1552    0.0489   -1.9739 N   0  0  0  0  0  0  0  0  0  0  0  0
    0.0053   -0.2723   -2.7693 C   0  0  0  0  0  0  0  0  0  0  0  0
    3.6748   -0.1171    1.9811 C   0  0  0  0  0  0  0  0  0  0  0  0
    4.7161    0.2602    1.1214 C   0  0  0  0  0  0  0  0  0  0  0  0
    3.9374   -0.5059    3.2939 C   0  0  0  0  0  0  0  0  0  0  0  0
    6.0000    0.2263    1.6427 C   0  0  0  0  0  0  0  0  0  0  0  0
    5.2293   -0.5373    3.8170 C   0  0  0  0  0  0  0  0  0  0  0  0
    6.3545   -0.1567    2.9703 C   0  0  0  0  0  0  0  0  0  0  0  0
   -1.1117    0.0546    2.1311 N   0  0  0  0  0  0  0  0  0  0  0  0
   -2.4509    0.3210    1.7785 C   0  0  0  0  0  0  0  0  0  0  0  0
   -3.2792    0.4589    2.6568 O   0  0  0  0  0  0  0  0  0  0  0  0
    7.6623   -0.0760    3.3147 O   0  0  0  0  0  0  0  0  0  0  0  0
    2.9321   -0.8636    4.1286 F   0  0  0  0  0  0  0  0  0  0  0  0
    7.0267    0.6265    0.8679 O   0  0  0  0  0  0  0  0  0  0  0  0
    2.3539   -0.0014   -2.7456 C   0  0  0  0  0  0  0  0  0  0  0  0
    0.2105   -1.6840   -3.3405 C   0  0  0  0  0  0  0  0  0  0  0  0
   -0.1938    0.8219    4.0073 C   0  0  0  0  0  0  0  0  0  0  0  0
    8.1851   -0.6315    4.4816 C   0  0  0  0  0  0  0  0  0  0  0  0
    8.0101   -1.9827    4.7771 C   0  0  0  0  0  0  0  0  0  0  0  0
    8.9226    0.1698    5.3263 C   0  0  0  0  0  0  0  0  0  0  0  0
    8.6619   -2.5152    5.8885 C   0  0  0  0  0  0  0  0  0  0  0  0
    9.5037   -0.3502    6.4723 C   0  0  0  0  0  0  0  0  0  0  0  0
    9.4619   -1.6714    6.6576 C   0  0  0  0  0  0  0  0  0  0  0  0
    6.8785    1.0870   -0.4653 C   0  0  0  0  0  0  0  0  0  0  0  0
  1  2  2  0
  1  4  1  0
  2  3  1  0
  2 16  1  0
  3  6  2  0
  3  7  1  0
  4  5  2  0
  4  8  1  0
  5  6  1  0
  6 10  1  0
  7 24  1  0
  8  9  1  0
  8 22  1  0
  9 23  1  0
 10 11  2  0
 10 12  1  0
 11 13  1  0
 12 14  2  0
 12 20  1  0
 13 15  2  0
 13 21  1  0
 14 15  1  0
 15 19  1  0
 16 17  1  0
 17 18  2  0
 19 25  1  0
 21 31  1  0
 25 26  2  0
 25 27  1  0
 26 28  1  0
 27 29  2  0
 28 30  2  0
 29 30  1  0
M  END

$$$$

     RDKit          3D

 31 34  0  0  0  0  0  0  0  0999 V2000
    0.0000    0.0000    0.0000 C   0  0  0  0  0  0  0  0  0  0  0  0
    0.0000    0.0000    1.3165 C   0  0  0  0  0  0  0  0  0  0  0  0
    1.0470    0.0000    2.1395 N   0  0  0  0  0  0  0  0  0  0  0  0
    1.2231    0.0601   -0.5613 C   0  0  0  0  0  0  0  0  0  0  0  0
    2.3698    0.0601    0.1008 N   0  0  0  0  0  0  0  0  0  0  0  0
    2.2380    0.0499    1.5047 C   0  0  0  0  0  0  0  0  0  0  0  0
    3.7105    0.0543   -0.1418 C   0  0  0  0  0  0  0  0  0  0  0  0
    3.4928   -0.0004    1.9243 N   0  0  0  0  0  0  0  0  0  0  0  0
    4.4844    0.0038    1.0263 C   0  0  0  0  0  0  0  0  0  0  0  0
    1.4778    0.1419   -2.2937 S   0  0  0  0  0  0  0  0  0  0  0  0
    4.1358    0.0453   -1.4528 N   0  0  0  0  0  0  0  0  0  0  0  0
   -1.3065   -0.0642    2.0718 C   0  0  0  0  0  0  0  0  0  0  0  0
   -0.1642   -0.0732   -3.0087 C   0  0  0  0  0  0  0  0  0  0  0  0
    5.9283    0.0365    1.2878 C   0  0  0  0  0  0  0  0  0  0  0  0
    6.5737    0.0728    0.2507 O   0  0  0  0  0  0  0  0  0  0  0  0
    3.7185   -1.0309   -2.3595 C   0  0  0  0  0  0  0  0  0  0  0  0
    4.3162   -2.3208   -1.8240 C   0  0  0  0  0  0  0  0  0  0  0  0
   -2.3348   -0.2167    1.2395 F   0  0  0  0  0  0  0  0  0  0  0  0
   -1.3578   -1.1084    2.9089 F   0  0  0  0  0  0  0  0  0  0  0  0
    5.7463   -2.2522   -2.3576 C   0  0  0  0  0  0  0  0  0  0  0  0
    6.4958    0.0286    2.5095 N   0  0  0  0  0  0  0  0  0  0  0  0
   -1.4698    1.0368    2.7890 F   0  0  0  0  0  0  0  0  0  0  0  0
    5.6731   -1.4011   -3.6455 C   0  0  0  0  0  0  0  0  0  0  0  0
    7.8622   -0.0014    2.9718 C   0  0  0  0  0  0  0  0  0  0  0  0
    8.2810    0.6358    4.2458 C   0  0  0  0  0  0  0  0  0  0  0  0
    8.9832    1.7580    4.5334 C   0  0  0  0  0  0  0  0  0  0  0  0
    7.4003    0.0747    5.6663 S   0  0  0  0  0  0  0  0  0  0  0  0
    9.2474    2.0439    5.8311 N   0  0  0  0  0  0  0  0  0  0  0  0
    8.4146    1.2770    6.4625 C   0  0  0  0  0  0  0  0  0  0  0  0
    8.2532    1.3457    7.7980 N   0  0  0  0  0  0  0  0  0  0  0  0
    4.3435   -0.8200   -3.6338 N   0  0  0  0  0  0  0  0  0  0  0  0
  1  2  1  0
  1  4  2  0
  2  3  2  0
  2 12  1  0
  3  6  1  0
  4  5  1  0
  4 10  1  0
  5  6  1  0
  5  7  1  0
  6  8  2  0
  7  9  2  0
  7 11  1  0
  8  9  1  0
  9 14  1  0
 10 13  1  0
 11 16  1  0
 12 18  1  0
 12 19  1  0
 12 22  1  0
 14 15  2  0
 14 21  1  0
 16 17  1  0
 16 31  1  0
 17 20  1  0
 20 23  1  0
 21 24  1  0
 23 31  1  0
 24 25  1  0
 25 26  2  0
 25 27  1  0
 26 28  1  0
 27 29  1  0
 28 29  2  0
 29 30  1  0
M  END

$$$$

     RDKit          3D

 23 24  0  0  0  0  0  0  0  0999 V2000
    0.0000    0.0000    0.0000 C   0  0  0  0  0  0  0  0  0  0  0  0
    0.0000    0.0000    1.3470 N   0  0  0  0  0  0  0  0  0  0  0  0
    1.2548    0.0000    1.8578 C   0  0  0  0  0  0  0  0  0  0  0  0
    1.0086   -0.0495   -0.9032 N   0  0  0  0  0  0  0  0  0  0  0  0
    2.2532    0.0116   -0.2605 C   0  0  0  0  0  0  0  0  0  0  0  0
    2.4784    0.1123    1.1444 C   0  0  0  0  0  0  0  0  0  0  0  0
    3.5231    0.0143   -1.3225 S   0  0  0  0  0  0  0  0  0  0  0  0
    3.7059    0.1258    1.8385 C   0  0  0  0  0  0  0  0  0  0  0  0
    4.7955    0.1181    2.1983 N   0  0  0  0  0  0  0  0  0  0  0  0
   -1.1768    0.0000   -0.6069 N   0  0  0  0  0  0  0  0  0  0  0  0
   -2.0898   -0.0513    0.4138 C   0  0  0  0  0  0  0  0  0  0  0  0
    1.6238    0.0584    3.2860 C   0  0  0  0  0  0  0  0  0  0  0  0
   -3.4579   -0.1282    0.3920 C   0  0  0  0  0  0  0  0  0  0  0  0
   -3.8816   -0.2051    1.6765 O   0  0  0  0  0  0  0  0  0  0  0  0
    0.4326   -0.0778   -2.2258 C   0  0  0  0  0  0  0  0  0  0  0  0
   -4.7044   -0.1984   -0.8241 S   0  0  0  0  0  0  0  0  0  0  0  0
   -3.6858    0.4755   -2.1095 C   0  0  0  0  0  0  0  0  0  0  0  0
   -2.7205    1.3631   -1.8778 N   0  0  0  0  0  0  0  0  0  0  0  0
   -4.1156    0.1161   -3.3861 C   0  0  0  0  0  0  0  0  0  0  0  0
   -1.9729    1.9243   -2.8049 C   0  0  0  0  0  0  0  0  0  0  0  0
   -3.3205    0.7049   -4.3569 C   0  0  0  0  0  0  0  0  0  0  0  0
   -2.2018    1.5713   -4.1091 C   0  0  0  0  0  0  0  0  0  0  0  0
   -3.7081    0.3075   -5.7431 C   0  0  0  0  0  0  0  0  0  0  0  0
  1  2  1  0
  1  4  1  0
  1 10  2  3
  2  3  2  0
  3  6  1  0
  3 12  1  0
  4  5  1  0
  4 15  1  0
  5  6  2  0
  5  7  1  0
  6  8  1  0
  8  9  3  0
 10 11  1  0
 11 13  2  3
 13 14  1  0
 13 16  1  0
 16 17  1  0
 17 18  2  0
 17 19  1  0
 18 20  1  0
 19 21  2  0
 20 22  2  0
 21 22  1  0
 21 23  1  0
M  END

$$$$

     RDKit          3D

 30 32  0  0  0  0  0  0  0  0999 V2000
    0.0000    0.0000    0.0000 N   0  0  0  0  0  0  0  0  0  0  0  0
    0.0000    0.0000    1.3470 C   0  0  0  0  0  0  0  0  0  0  0  0
    1.1556    0.0000    2.0836 C   0  0  0  0  0  0  0  0  0  0  0  0
    1.1616    0.0571   -0.5331 C   0  0  0  0  0  0  0  0  0  0  0  0
    2.4074    0.0571    0.0379 N   0  0  0  0  0  0  0  0  0  0  0  0
    2.4079    0.0456    1.3320 C   0  0  0  0  0  0  0  0  0  0  0  0
    1.2218    0.2253   -2.2769 S   0  0  0  0  0  0  0  0  0  0  0  0
   -0.5218    0.3360   -2.8030 C   0  0  0  0  0  0  0  0  0  0  0  0
   -1.3733    1.1188   -1.7915 C   0  0  0  0  0  0  0  0  0  0  0  0
   -2.4612    0.6833   -1.5271 O   0  0  0  0  0  0  0  0  0  0  0  0
    1.3770    0.0593    3.5678 C   0  0  0  0  0  0  0  0  0  0  0  0
    2.1237    1.3641    3.9627 C   0  0  0  0  0  0  0  0  0  0  0  0
   -0.8581    2.2788   -1.2747 N   0  0  0  0  0  0  0  0  0  0  0  0
    3.2164    0.9812    4.9731 C   0  0  0  0  0  0  0  0  0  0  0  0
    3.5138    0.0972    2.1396 N   0  0  0  0  0  0  0  0  0  0  0  0
    3.5618   -0.4301    4.5296 C   0  0  0  0  0  0  0  0  0  0  0  0
   -1.2268    0.0000    2.1376 C   0  0  0  0  0  0  0  0  0  0  0  0
   -2.5388    0.1292    1.7356 C   0  0  0  0  0  0  0  0  0  0  0  0
   -0.8326   -0.1633    3.4816 C   0  0  0  0  0  0  0  0  0  0  0  0
   -3.4834    0.0324    2.7454 C   0  0  0  0  0  0  0  0  0  0  0  0
   -1.7772   -0.2596    4.4916 C   0  0  0  0  0  0  0  0  0  0  0  0
   -3.1161   -0.1826    4.0814 C   0  0  0  0  0  0  0  0  0  0  0  0
   -4.8958    0.2070    2.4617 N   0  0  0  0  0  0  0  0  0  0  0  0
   -5.1896    0.4387    1.3057 O   0  0  0  0  0  0  0  0  0  0  0  0
   -1.1267    2.8059   -0.0035 C   0  0  0  0  0  0  0  0  0  0  0  0
   -2.3853    2.6909    0.5850 C   0  0  0  0  0  0  0  0  0  0  0  0
   -0.0948    3.3455    0.7775 C   0  0  0  0  0  0  0  0  0  0  0  0
   -2.5627    3.1140    1.8930 C   0  0  0  0  0  0  0  0  0  0  0  0
   -0.2866    3.7612    2.0943 C   0  0  0  0  0  0  0  0  0  0  0  0
   -1.4988    3.5895    2.6289 C   0  0  0  0  0  0  0  0  0  0  0  0
  1  2  2  0
  1  4  1  0
  2  3  1  0
  2 17  1  0
  3  6  2  0
  3 11  1  0
  4  5  2  0
  4  7  1  0
  5  6  1  0
  6 15  1  0
  7  8  1  0
  8  9  1  0
  9 10  2  0
  9 13  1  0
 11 12  1  0
 12 14  1  0
 13 25  1  0
 14 16  1  0
 17 18  2  0
 17 19  1  0
 18 20  1  0
 19 21  2  0
 20 22  2  0
 20 23  1  0
 21 22  1  0
 23 24  2  0
 25 26  2  0
 25 27  1  0
 26 28  1  0
 27 29  2  0
 28 30  2  0
 29 30  1  0
M  END

$$$$

     RDKit          3D

 29 31  0  0  0  0  0  0  0  0999 V2000
    0.0000    0.0000    0.0000 C   0  0  0  0  0  0  0  0  0  0  0  0
    0.0000    0.0000    1.3704 C   0  0  0  0  0  0  0  0  0  0  0  0
    1.2086    0.0000    1.9824 C   0  0  0  0  0  0  0  0  0  0  0  0
    1.1077   -0.1091   -0.7172 N   0  0  0  0  0  0  0  0  0  0  0  0
    2.2644   -0.1091   -0.1207 C   0  0  0  0  0  0  0  0  0  0  0  0
    2.3374   -0.0540    1.2704 N   0  0  0  0  0  0  0  0  0  0  0  0
    3.3529   -0.1731   -0.8853 N   0  0  0  0  0  0  0  0  0  0  0  0
   -1.2769   -0.0627   -0.7381 N   0  0  0  0  0  0  0  0  0  0  0  0
   -1.7093   -1.4879   -0.9899 C   0  0  0  0  0  0  0  0  0  0  0  0
   -0.6474   -2.1886   -1.7718 C   0  0  0  0  0  0  0  0  0  0  0  0
   -0.4798   -1.9339   -3.1486 C   0  0  0  0  0  0  0  0  0  0  0  0
    0.2780   -3.0040   -1.1568 C   0  0  0  0  0  0  0  0  0  0  0  0
    0.5633   -2.4555   -3.8831 C   0  0  0  0  0  0  0  0  0  0  0  0
    1.3633   -3.5738   -1.8210 C   0  0  0  0  0  0  0  0  0  0  0  0
    1.5123   -3.2215   -3.1912 C   0  0  0  0  0  0  0  0  0  0  0  0
    2.3679   -4.3759   -1.2218 C   0  0  0  0  0  0  0  0  0  0  0  0
    2.6181   -3.7309   -3.8866 C   0  0  0  0  0  0  0  0  0  0  0  0
    3.3967   -4.9593   -1.9295 C   0  0  0  0  0  0  0  0  0  0  0  0
    3.5333   -4.4241   -3.1673 C   0  0  0  0  0  0  0  0  0  0  0  0
    4.4295   -5.6913   -1.4692 O   0  0  0  0  0  0  0  0  0  0  0  0
    4.6034   -5.8252   -0.0762 C   0  0  0  0  0  0  0  0  0  0  0  0
   -1.4205   -1.0675   -3.9029 C   0  0  0  0  0  0  0  0  0  0  0  0
    2.2517   -4.6325    0.2534 C   0  0  0  0  0  0  0  0  0  0  0  0
    3.4240   -5.2306    0.7368 O   0  0  0  0  0  0  0  0  0  0  0  0
   -1.3900   -1.3172   -5.4188 C   0  0  0  0  0  0  0  0  0  0  0  0
    4.6171   -4.8826   -3.7741 O   0  0  0  0  0  0  0  0  0  0  0  0
   -2.0242   -2.6728   -5.8047 C   0  0  0  0  0  0  0  0  0  0  0  0
   -2.1377   -0.2082   -6.1572 C   0  0  0  0  0  0  0  0  0  0  0  0
   -3.5316   -2.7416   -5.5655 C   0  0  0  0  0  0  0  0  0  0  0  0
  1  2  2  0
  1  4  1  0
  1  8  1  0
  2  3  1  0
  3  6  2  0
  4  5  2  0
  5  6  1  0
  5  7  1  0
  8  9  1  0
  9 10  1  0
 10 11  2  0
 10 12  1  0
 11 13  1  0
 11 22  1  0
 12 14  2  0
 13 15  2  0
 14 15  1  0
 14 16  1  0
 15 17  1  0
 16 18  2  0
 16 23  1  0
 17 19  2  0
 18 19  1  0
 18 20  1  0
 19 26  1  0
 20 21  1  0
 22 25  1  0
 23 24  1  0
 25 27  1  0
 25 28  1  0
 27 29  1  0
M  END

$$$$

     RDKit          3D

 13 13  0  0  0  0  0  0  0  0999 V2000
    0.0000    0.0000    0.0000 C   0  0  0  0  0  0  0  0  0  0  0  0
    0.0000    0.0000    1.3941 N   0  0  0  0  0  0  0  0  0  0  0  0
    1.2516    0.0000    1.9522 C   0  0  0  0  0  0  0  0  0  0  0  0
    1.1258    0.0000   -0.7255 C   0  0  0  0  0  0  0  0  0  0  0  0
    2.3368    0.0000   -0.1010 C   0  0  0  0  0  0  0  0  0  0  0  0
    2.3368    0.0000    1.3092 N   0  0  0  0  0  0  0  0  0  0  0  0
    3.5251   -0.0522   -0.7167 N   0  0  0  0  0  0  0  0  0  0  0  0
    1.3792    0.0528    3.2999 N   0  0  0  0  0  0  0  0  0  0  0  0
   -1.5425   -0.0758   -0.8917 S   0  0  0  0  0  0  0  0  0  0  0  0
   -1.4630    1.5440   -1.7279 C   0  0  0  0  0  0  0  0  0  0  0  0
   -1.1290    2.5200   -0.6364 C   0  0  0  0  0  0  0  0  0  0  0  0
   -0.0232    2.8939   -0.3530 O   0  0  0  0  0  0  0  0  0  0  0  0
   -2.2076    2.9601   -0.0069 O   0  0  0  0  0  0  0  0  0  0  0  0
  1  2  2  0
  1  4  1  0
  1  9  1  0
  2  3  1  0
  3  6  2  0
  3  8  1  0
  4  5  2  0
  5  6  1  0
  5  7  1  0
  9 10  1  0
 10 11  1  0
 11 12  2  0
 11 13  1  0
M  END

$$$$

     RDKit          3D

 26 27  0  0  0  0  0  0  0  0999 V2000
    0.0000    0.0000    0.0000 C   0  0  0  0  0  0  0  0  0  0  0  0
    0.0000    0.0000    1.3015 N   0  0  0  0  0  0  0  0  0  0  0  0
    1.2163    0.0000    1.8439 C   0  0  0  0  0  0  0  0  0  0  0  0
    1.1693   -0.2326   -0.7682 C   0  0  0  0  0  0  0  0  0  0  0  0
    2.3752   -0.1733   -0.0712 C   0  0  0  0  0  0  0  0  0  0  0  0
    2.3834   -0.1293    1.2751 N   0  0  0  0  0  0  0  0  0  0  0  0
    3.6780   -0.2366   -0.7625 C   0  0  0  0  0  0  0  0  0  0  0  0
    4.5963   -1.2093   -0.4307 C   0  0  0  0  0  0  0  0  0  0  0  0
    4.0518    0.7232   -1.7257 C   0  0  0  0  0  0  0  0  0  0  0  0
    5.8110   -1.3386   -1.0858 C   0  0  0  0  0  0  0  0  0  0  0  0
    5.2509    0.5960   -2.3768 C   0  0  0  0  0  0  0  0  0  0  0  0
    6.1098   -0.4134   -2.0626 C   0  0  0  0  0  0  0  0  0  0  0  0
    3.1155    1.7006   -1.8823 O   0  0  0  0  0  0  0  0  0  0  0  0
    1.0552   -0.5080   -2.2055 C   0  0  0  0  0  0  0  0  0  0  0  0
    1.7775   -1.3190   -2.7504 O   0  0  0  0  0  0  0  0  0  0  0  0
    1.1545    0.0618    3.5549 S   0  0  0  0  0  0  0  0  0  0  0  0
    3.4640    2.7003   -2.7894 C   0  0  0  0  0  0  0  0  0  0  0  0
    2.9563    0.1122    3.7598 C   0  0  0  0  0  0  0  0  0  0  0  0
    7.2239   -0.4086   -2.8470 O   0  0  0  0  0  0  0  0  0  0  0  0
    8.1477   -1.4422   -2.6368 C   0  0  0  0  0  0  0  0  0  0  0  0
    0.0462    0.3174   -2.9513 C   0  0  0  0  0  0  0  0  0  0  0  0
    4.6565    3.5600   -2.3128 C   0  0  0  0  0  0  0  0  0  0  0  0
    3.6286    2.2542   -4.0746 F   0  0  0  0  0  0  0  0  0  0  0  0
    4.8085    3.5464   -0.9975 F   0  0  0  0  0  0  0  0  0  0  0  0
    4.5698    4.8039   -2.7352 F   0  0  0  0  0  0  0  0  0  0  0  0
    5.7924    3.0879   -2.8231 F   0  0  0  0  0  0  0  0  0  0  0  0
  1  2  2  0
  1  4  1  0
  2  3  1  0
  3  6  2  0
  3 16  1  0
  4  5  2  0
  4 14  1  0
  5  6  1  0
  5  7  1  0
  7  8  2  0
  7  9  1  0
  8 10  1  0
  9 11  2  0
  9 13  1  0
 10 12  2  0
 11 12  1  0
 12 19  1  0
 13 17  1  0
 14 15  2  0
 14 21  1  0
 16 18  1  0
 17 22  1  0
 17 23  1  0
 19 20  1  0
 22 24  1  0
 22 25  1  0
 22 26  1  0
M  END

$$$$

     RDKit          3D

 18 20  0  0  0  0  0  0  0  0999 V2000
    0.0000    0.0000    0.0000 N   0  0  0  0  0  0  0  0  0  0  0  0
    0.0000    0.0000    1.3704 C   0  0  0  0  0  0  0  0  0  0  0  0
    1.1459    0.0000    2.0488 C   0  0  0  0  0  0  0  0  0  0  0  0
    1.1739    0.1741   -0.6852 C   0  0  0  0  0  0  0  0  0  0  0  0
    2.3697    0.2329   -0.0678 N   0  0  0  0  0  0  0  0  0  0  0  0
    2.3149    0.0974    1.3760 C   0  0  0  0  0  0  0  0  0  0  0  0
    3.6042    0.4621   -0.7274 C   0  0  0  0  0  0  0  0  0  0  0  0
    4.6772   -0.3714   -0.6243 C   0  0  0  0  0  0  0  0  0  0  0  0
    3.5839    1.6154   -1.5804 C   0  0  0  0  0  0  0  0  0  0  0  0
    5.9008   -0.0747   -1.2593 C   0  0  0  0  0  0  0  0  0  0  0  0
    4.7641    1.9029   -2.1977 C   0  0  0  0  0  0  0  0  0  0  0  0
    7.1030   -0.6274   -1.3095 N   0  0  0  0  0  0  0  0  0  0  0  0
    5.9357    1.1546   -2.0139 C   0  0  0  0  0  0  0  0  0  0  0  0
    7.9036    0.1304   -2.0429 O   0  0  0  0  0  0  0  0  0  0  0  0
    7.1933    1.1704   -2.4278 N   0  0  0  0  0  0  0  0  0  0  0  0
    3.4098    0.1122    1.8865 O   0  0  0  0  0  0  0  0  0  0  0  0
    1.2028    0.4252   -2.3212 S   0  0  0  0  0  0  0  0  0  0  0  0
    4.5955   -2.0104    0.3744 Br  0  0  0  0  0  0  0  0  0  0  0  0
  1  2  1  0
  1  4  2  0
  2  3  2  0
  3  6  1  0
  4  5  1  0
  4 17  1  0
  5  6  1  0
  5  7  1  0
  6 16  2  0
  7  8  2  0
  7  9  1  0
  8 10  1  0
  8 18  1  0
  9 11  2  0
 10 12  2  0
 10 13  1  0
 11 13  1  0
 12 14  1  0
 13 15  2  0
 14 15  1  0
M  END

$$$$

     RDKit          3D

 26 27  0  0  0  0  0  0  0  0999 V2000
    0.0000    0.0000    0.0000 N   0  0  0  0  0  0  0  0  0  0  0  0
    0.0000    0.0000    1.3862 C   0  0  0  0  0  0  0  0  0  0  0  0
    1.1026    0.0000    2.0637 N   0  0  0  0  0  0  0  0  0  0  0  0
    1.1836    0.0000   -0.6104 C   0  0  0  0  0  0  0  0  0  0  0  0
    2.3555    0.0000    0.1448 C   0  0  0  0  0  0  0  0  0  0  0  0
    2.2259    0.0000    1.4856 C   0  0  0  0  0  0  0  0  0  0  0  0
    3.7056   -0.0539   -0.4909 C   0  0  0  0  0  0  0  0  0  0  0  0
    3.3918   -0.0579    2.4032 N   0  0  0  0  0  0  0  0  0  0  0  0
    4.8692    0.2097    0.4496 C   0  0  0  0  0  0  0  0  0  0  0  0
   -1.3502    0.0000    2.0824 C   0  0  0  0  0  0  0  0  0  0  0  0
   -1.9778   -1.3269    2.0824 N   0  0  0  0  0  0  0  0  0  0  0  0
   -2.2303   -1.8799    0.8367 O   0  0  0  0  0  0  0  0  0  0  0  0
   -2.3867    1.0365    1.4895 C   0  0  0  0  0  0  0  0  0  0  0  0
   -3.0509    0.5104    0.3318 O   0  0  0  0  0  0  0  0  0  0  0  0
   -1.6129    2.2769    1.0455 C   0  0  0  0  0  0  0  0  0  0  0  0
   -1.4927   -2.3197    3.0231 C   0  0  0  0  0  0  0  0  0  0  0  0
   -1.0622    0.3753    3.5724 C   0  0  0  0  0  0  0  0  0  0  0  0
   -3.4345    1.2613    2.5785 C   0  0  0  0  0  0  0  0  0  0  0  0
   -3.3909    2.3852    3.3887 C   0  0  0  0  0  0  0  0  0  0  0  0
   -4.3699    0.2713    2.7893 C   0  0  0  0  0  0  0  0  0  0  0  0
   -4.3448    2.5229    4.4070 C   0  0  0  0  0  0  0  0  0  0  0  0
   -5.3092    0.4090    3.7994 C   0  0  0  0  0  0  0  0  0  0  0  0
   -5.3546    1.5879    4.5727 C   0  0  0  0  0  0  0  0  0  0  0  0
   -2.3306    3.4198    3.1418 C   0  0  0  0  0  0  0  0  0  0  0  0
   -6.2660   -0.5044    4.0095 O   0  0  0  0  0  0  0  0  0  0  0  0
   -4.2344    3.6066    5.1994 O   0  0  0  0  0  0  0  0  0  0  0  0
  1  2  2  0
  1  4  1  0
  2  3  1  0
  2 10  1  0
  3  6  2  0
  4  5  2  0
  5  6  1  0
  5  7  1  0
  6  8  1  0
  7  9  1  0
 10 11  1  0
 10 13  1  0
 10 17  1  0
 11 12  1  0
 11 16  1  0
 13 14  1  0
 13 15  1  0
 13 18  1  0
 18 19  2  0
 18 20  1  0
 19 21  1  0
 19 24  1  0
 20 22  2  0
 21 23  2  0
 21 26  1  0
 22 23  1  0
 22 25  1  0
M  END

$$$$

     RDKit          3D

 31 34  0  0  0  0  0  0  0  0999 V2000
    0.0000    0.0000    0.0000 C   0  0  0  0  0  0  0  0  0  0  0  0
    0.0000    0.0000    1.4678 C   0  0  0  0  0  0  0  0  0  0  0  0
    1.2015    0.0000    2.1268 C   0  0  0  0  0  0  0  0  0  0  0  0
    1.1779   -0.1160   -0.6104 N   0  0  0  0  0  0  0  0  0  0  0  0
    2.2919   -0.0063    0.1110 C   0  0  0  0  0  0  0  0  0  0  0  0
    2.3472   -0.0829    1.4781 N   0  0  0  0  0  0  0  0  0  0  0  0
    3.5309    0.1486   -0.3064 N   0  0  0  0  0  0  0  0  0  0  0  0
    3.6002    0.0066    1.9644 N   0  0  0  0  0  0  0  0  0  0  0  0
    4.2316    0.1449    0.8622 C   0  0  0  0  0  0  0  0  0  0  0  0
    5.6759    0.3482    0.9151 C   0  0  0  0  0  0  0  0  0  0  0  0
    6.3952    0.5572   -0.2607 C   0  0  0  0  0  0  0  0  0  0  0  0
    6.3526    0.2868    2.1233 C   0  0  0  0  0  0  0  0  0  0  0  0
    7.7750    0.8068   -0.2558 C   0  0  0  0  0  0  0  0  0  0  0  0
    7.7227    0.4365    2.1174 C   0  0  0  0  0  0  0  0  0  0  0  0
    8.4438    0.7840    0.9854 C   0  0  0  0  0  0  0  0  0  0  0  0
   -1.2574   -0.1865    2.2018 C   0  0  0  0  0  0  0  0  0  0  0  0
   -2.3318   -0.0807    1.7069 O   0  0  0  0  0  0  0  0  0  0  0  0
    8.5054    1.0633   -1.3676 N   0  0  0  0  0  0  0  0  0  0  0  0
   -1.0699    0.1587   -0.7768 N   0  0  0  0  0  0  0  0  0  0  0  0
   -0.9593    0.5111   -2.1888 C   0  0  0  0  0  0  0  0  0  0  0  0
   10.1648    1.0078    1.1468 Cl  0  0  0  0  0  0  0  0  0  0  0  0
   -1.1442   -0.5829    3.5004 O   0  0  0  0  0  0  0  0  0  0  0  0
   -0.5242   -0.7056   -3.0366 C   0  0  0  0  0  0  0  0  0  0  0  0
   -0.0233    1.6713   -2.4813 C   0  0  0  0  0  0  0  0  0  0  0  0
    0.2138    2.5668   -1.3642 C   0  0  0  0  0  0  0  0  0  0  0  0
    0.6514    1.7995   -3.6491 C   0  0  0  0  0  0  0  0  0  0  0  0
    1.2174    3.4760   -1.6204 N   0  0  0  0  0  0  0  0  0  0  0  0
   -0.4044    2.6020   -0.3268 O   0  0  0  0  0  0  0  0  0  0  0  0
    1.6974    2.7508   -3.8920 C   0  0  0  0  0  0  0  0  0  0  0  0
    1.9038    3.7189   -2.7721 C   0  0  0  0  0  0  0  0  0  0  0  0
    2.2903    2.8218   -5.1784 C   0  0  0  0  0  0  0  0  0  0  0  0
  1  2  1  0
  1  4  2  0
  1 19  1  0
  2  3  2  0
  2 16  1  0
  3  6  1  0
  4  5  1  0
  5  6  1  0
  5  7  2  0
  6  8  1  0
  7  9  1  0
  8  9  2  0
  9 10  1  0
 10 11  2  0
 10 12  1  0
 11 13  1  0
 12 14  2  0
 13 15  2  0
 13 18  1  0
 14 15  1  0
 15 21  1  0
 16 17  2  0
 16 22  1  0
 19 20  1  0
 20 23  1  0
 20 24  1  0
 24 25  1  0
 24 26  2  0
 25 27  1  0
 25 28  2  0
 26 29  1  0
 27 30  1  0
 29 30  1  0
 29 31  1  0
M  END

$$$$

     RDKit          3D

 31 36  0  0  0  0  0  0  0  0999 V2000
    0.0000    0.0000    0.0000 C   0  0  0  0  0  0  0  0  0  0  0  0
    0.0000    0.0000    1.3625 C   0  0  0  0  0  0  0  0  0  0  0  0
    1.1543    0.0000    1.9957 C   0  0  0  0  0  0  0  0  0  0  0  0
    1.1853    0.0582   -0.6852 N   0  0  0  0  0  0  0  0  0  0  0  0
    2.3255    0.0582   -0.0269 C   0  0  0  0  0  0  0  0  0  0  0  0
    2.3942    0.0004    1.3723 N   0  0  0  0  0  0  0  0  0  0  0  0
    3.5804    0.0545   -0.4493 N   0  0  0  0  0  0  0  0  0  0  0  0
    3.7072   -0.0368    1.7345 C   0  0  0  0  0  0  0  0  0  0  0  0
    4.4003    0.0026    0.6573 C   0  0  0  0  0  0  0  0  0  0  0  0
   -1.2128    0.0000   -0.7815 C   0  0  0  0  0  0  0  0  0  0  0  0
   -2.4726   -0.5218   -0.4911 C   0  0  0  0  0  0  0  0  0  0  0  0
   -1.2675    0.5545   -2.0595 C   0  0  0  0  0  0  0  0  0  0  0  0
   -3.3150   -0.2479   -1.4855 N   0  0  0  0  0  0  0  0  0  0  0  0
   -2.6138    0.4053   -2.4515 N   0  0  0  0  0  0  0  0  0  0  0  0
   -0.4208    1.1582   -2.8670 N   0  0  0  0  0  0  0  0  0  0  0  0
   -3.0094    0.9056   -3.6555 C   0  0  0  0  0  0  0  0  0  0  0  0
   -0.7998    1.6264   -4.0291 C   0  0  0  0  0  0  0  0  0  0  0  0
   -2.0799    1.5312   -4.4309 C   0  0  0  0  0  0  0  0  0  0  0  0
    4.1110   -0.1501    3.0309 N   0  0  0  0  0  0  0  0  0  0  0  0
    0.1991    2.2483   -4.9206 C   0  0  0  0  0  0  0  0  0  0  0  0
    1.6081    1.7299   -4.8842 C   0  0  0  0  0  0  0  0  0  0  0  0
    5.8291   -0.0720    0.5521 C   0  0  0  0  0  0  0  0  0  0  0  0
    6.4983   -0.0359   -0.6613 C   0  0  0  0  0  0  0  0  0  0  0  0
    6.6523   -0.2491    1.5838 O   0  0  0  0  0  0  0  0  0  0  0  0
    7.8367   -0.1908   -0.2734 C   0  0  0  0  0  0  0  0  0  0  0  0
    7.8868   -0.3170    1.0890 C   0  0  0  0  0  0  0  0  0  0  0  0
   -4.4642    0.7683   -4.0025 C   0  0  0  0  0  0  0  0  0  0  0  0
    1.2547    3.0754   -4.3415 C   0  0  0  0  0  0  0  0  0  0  0  0
   -4.8963   -0.4913   -4.0071 F   0  0  0  0  0  0  0  0  0  0  0  0
   -5.2560    1.5006   -3.1826 F   0  0  0  0  0  0  0  0  0  0  0  0
   -4.6533    1.2644   -5.2321 F   0  0  0  0  0  0  0  0  0  0  0  0
  1  2  1  0
  1  4  2  0
  1 10  1  0
  2  3  2  0
  3  6  1  0
  4  5  1  0
  5  6  1  0
  5  7  2  0
  6  8  1  0
  7  9  1  0
  8  9  2  0
  8 19  1  0
  9 22  1  0
 10 11  1  0
 10 12  2  0
 11 13  2  0
 12 14  1  0
 12 15  1  0
 13 14  1  0
 14 16  1  0
 15 17  2  0
 16 18  2  0
 16 27  1  0
 17 18  1  0
 17 20  1  0
 20 21  1  0
 20 28  1  0
 21 28  1  0
 22 23  2  0
 22 24  1  0
 23 25  1  0
 24 26  1  0
 25 26  2  0
 27 29  1  0
 27 30  1  0
 27 31  1  0
M  END

$$$$

     RDKit          3D

 30 33  0  0  0  0  0  0  0  0999 V2000
    0.0000    0.0000    0.0000 C   0  0  0  0  0  0  0  0  0  0  0  0
    0.0000    0.0000    1.3704 C   0  0  0  0  0  0  0  0  0  0  0  0
    1.0194    0.0000    2.2273 N   0  0  0  0  0  0  0  0  0  0  0  0
    1.2110    0.0000   -0.6245 C   0  0  0  0  0  0  0  0  0  0  0  0
    2.3706   -0.1142    0.1263 N   0  0  0  0  0  0  0  0  0  0  0  0
    2.1686   -0.1656    1.4887 C   0  0  0  0  0  0  0  0  0  0  0  0
    3.6984   -0.0996   -0.1001 N   0  0  0  0  0  0  0  0  0  0  0  0
    3.4128   -0.1185    1.9393 N   0  0  0  0  0  0  0  0  0  0  0  0
    4.3817   -0.1052    1.0429 C   0  0  0  0  0  0  0  0  0  0  0  0
    5.8260   -0.0363    1.2412 C   0  0  0  0  0  0  0  0  0  0  0  0
    6.6451   -0.6388    2.2182 C   0  0  0  0  0  0  0  0  0  0  0  0
    6.3445    0.7191    0.1905 C   0  0  0  0  0  0  0  0  0  0  0  0
    8.0264   -0.4048    2.2750 C   0  0  0  0  0  0  0  0  0  0  0  0
    7.7143    0.9013    0.2989 C   0  0  0  0  0  0  0  0  0  0  0  0
    8.6380    0.4323    1.3668 C   0  0  0  0  0  0  0  0  0  0  0  0
    1.4397    0.1528   -1.9510 N   0  0  0  0  0  0  0  0  0  0  0  0
    8.8437   -0.9224    3.2235 F   0  0  0  0  0  0  0  0  0  0  0  0
   -1.3715   -0.0674    1.9997 C   0  0  0  0  0  0  0  0  0  0  0  0
   -1.4348   -1.3575    2.8321 C   0  0  0  0  0  0  0  0  0  0  0  0
   -1.5837    0.9996    2.7810 F   0  0  0  0  0  0  0  0  0  0  0  0
    5.9985   -1.4492    3.0783 O   0  0  0  0  0  0  0  0  0  0  0  0
   -2.4157   -0.1187    1.1626 F   0  0  0  0  0  0  0  0  0  0  0  0
    6.7033   -1.8429    4.2149 C   0  0  0  0  0  0  0  0  0  0  0  0
    7.2752   -0.9280    5.0598 C   0  0  0  0  0  0  0  0  0  0  0  0
    6.6486   -3.2024    4.5191 C   0  0  0  0  0  0  0  0  0  0  0  0
    7.9202   -1.3627    6.1976 C   0  0  0  0  0  0  0  0  0  0  0  0
    7.2971   -3.6352    5.6748 C   0  0  0  0  0  0  0  0  0  0  0  0
    7.9576   -2.7205    6.4316 C   0  0  0  0  0  0  0  0  0  0  0  0
    7.3644   -5.0697    6.0838 C   0  0  0  0  0  0  0  0  0  0  0  0
    5.9052   -4.1173    3.5886 C   0  0  0  0  0  0  0  0  0  0  0  0
  1  2  1  0
  1  4  2  0
  2  3  2  0
  2 18  1  0
  3  6  1  0
  4  5  1  0
  4 16  1  0
  5  6  1  0
  5  7  1  0
  6  8  2  0
  7  9  2  0
  8  9  1  0
  9 10  1  0
 10 11  1  0
 10 12  1  0
 11 13  1  0
 11 21  1  0
 12 14  2  0
 13 15  2  0
 13 17  1  0
 14 15  1  0
 18 19  1  0
 18 20  1  0
 18 22  1  0
 21 23  1  0
 23 24  2  0
 23 25  1  0
 24 26  1  0
 25 27  2  0
 25 30  1  0
 26 28  2  0
 27 28  1  0
 27 29  1  0
M  END

$$$$

     RDKit          3D

 30 31  0  0  0  0  0  0  0  0999 V2000
    0.0000    0.0000    0.0000 C   0  0  0  0  0  0  0  0  0  0  0  0
    0.0000    0.0000    1.3015 C   0  0  0  0  0  0  0  0  0  0  0  0
    1.0974    0.0000    2.1353 N   0  0  0  0  0  0  0  0  0  0  0  0
    1.2753   -0.1892   -0.5909 C   0  0  0  0  0  0  0  0  0  0  0  0
    2.4128   -0.1333    0.1429 N   0  0  0  0  0  0  0  0  0  0  0  0
    2.2980   -0.0627    1.4525 C   0  0  0  0  0  0  0  0  0  0  0  0
   -1.4140   -0.0695    2.3182 S   0  0  0  0  0  0  0  0  0  0  0  0
   -0.4367   -0.0913    3.8466 C   0  0  0  0  0  0  0  0  0  0  0  0
    1.3971   -0.4466   -1.9639 C   0  0  0  0  0  0  0  0  0  0  0  0
    2.5843   -0.9496   -2.4042 C   0  0  0  0  0  0  0  0  0  0  0  0
    3.6948   -1.1816   -1.6923 N   0  0  0  0  0  0  0  0  0  0  0  0
    4.6351   -2.1468   -1.9414 O   0  0  0  0  0  0  0  0  0  0  0  0
    4.6812   -2.7045   -0.6115 C   0  0  0  0  0  0  0  0  0  0  0  0
    5.6105   -1.8413    0.2559 C   0  0  0  0  0  0  0  0  0  0  0  0
    5.4465   -0.3281   -0.0121 C   0  0  0  0  0  0  0  0  0  0  0  0
    6.7636    0.1376   -0.1306 O   0  0  0  0  0  0  0  0  0  0  0  0
    4.2520    0.1205   -0.8997 C   0  0  0  0  0  0  0  0  0  0  0  0
    3.5243   -0.0687    2.0099 O   0  0  0  0  0  0  0  0  0  0  0  0
    3.6753    0.3352    3.3526 C   0  0  0  0  0  0  0  0  0  0  0  0
    3.5930    1.7831    3.4031 N   0  0  0  0  0  0  0  0  0  0  0  0
    3.3968   -1.9097   -0.6197 C   0  0  0  0  0  0  0  0  0  0  0  0
    2.6713   -2.2996    0.2642 O   0  0  0  0  0  0  0  0  0  0  0  0
    5.1142   -0.0912    3.6392 C   0  0  0  0  0  0  0  0  0  0  0  0
    2.4397    2.3691    3.0009 N   0  0  0  0  0  0  0  0  0  0  0  0
    2.4272    3.6065    3.2958 C   0  0  0  0  0  0  0  0  0  0  0  0
    4.6402    2.7395    3.8423 C   0  0  0  0  0  0  0  0  0  0  0  0
    1.3147    4.5018    2.9218 C   0  0  0  0  0  0  0  0  0  0  0  0
    3.9211    3.9962    3.9402 N   0  0  0  0  0  0  0  0  0  0  0  0
    5.2110    2.3442    5.1935 C   0  0  0  0  0  0  0  0  0  0  0  0
    5.7289    2.8387    2.7749 C   0  0  0  0  0  0  0  0  0  0  0  0
  1  2  2  0
  1  4  1  0
  2  3  1  0
  2  7  1  0
  3  6  2  0
  4  5  2  0
  4  9  1  0
  5  6  1  0
  6 18  1  0
  7  8  1  0
  9 10  2  3
 10 11  1  0
 11 12  1  0
 11 21  1  0
 12 13  1  0
 13 14  1  0
 13 21  1  0
 14 15  1  0
 15 16  1  0
 15 17  1  0
 18 19  1  0
 19 20  1  0
 19 23  1  0
 20 24  1  0
 20 26  1  0
 21 22  2  0
 24 25  2  3
 25 27  1  0
 26 28  1  0
 26 29  1  0
 26 30  1  0
M  END

$$$$

     RDKit          3D

 31 32  0  0  0  0  0  0  0  0999 V2000
    0.0000    0.0000    0.0000 C   0  0  0  0  0  0  0  0  0  0  0  0
    0.0000    0.0000    1.3782 N   0  0  0  0  0  0  0  0  0  0  0  0
    1.2403    0.0000    2.0322 C   0  0  0  0  0  0  0  0  0  0  0  0
    1.0559    0.0519   -0.7592 N   0  0  0  0  0  0  0  0  0  0  0  0
    2.2654   -0.0075   -0.1347 C   0  0  0  0  0  0  0  0  0  0  0  0
    2.3368   -0.0036    1.2817 C   0  0  0  0  0  0  0  0  0  0  0  0
   -1.0144   -0.0498    2.2866 C   0  0  0  0  0  0  0  0  0  0  0  0
   -0.3881   -0.0738    3.5408 C   0  0  0  0  0  0  0  0  0  0  0  0
   -2.3998   -0.1179    2.5821 C   0  0  0  0  0  0  0  0  0  0  0  0
    0.9935    0.0115    3.4666 C   0  0  0  0  0  0  0  0  0  0  0  0
   -1.2998   -0.1762    4.5271 O   0  0  0  0  0  0  0  0  0  0  0  0
   -2.7601   -0.1874    3.8782 C   0  0  0  0  0  0  0  0  0  0  0  0
   -1.2121   -0.1194   -0.6281 N   0  0  0  0  0  0  0  0  0  0  0  0
    3.3148   -0.0766   -0.9642 N   0  0  0  0  0  0  0  0  0  0  0  0
   -2.3922    0.6691   -0.3258 C   0  0  0  0  0  0  0  0  0  0  0  0
    4.6814    0.0148   -0.5377 C   0  0  0  0  0  0  0  0  0  0  0  0
    3.1669   -0.2048   -2.3854 C   0  0  0  0  0  0  0  0  0  0  0  0
    5.2924    1.2468   -1.2035 C   0  0  0  0  0  0  0  0  0  0  0  0
    3.7337    1.0233   -3.1144 C   0  0  0  0  0  0  0  0  0  0  0  0
    6.7596    1.3580   -0.8254 C   0  0  0  0  0  0  0  0  0  0  0  0
   -2.6808    1.6315   -1.4884 C   0  0  0  0  0  0  0  0  0  0  0  0
   -1.3799    1.9804   -2.2099 C   0  0  0  0  0  0  0  0  0  0  0  0
    5.2424    1.1373   -2.6749 N   0  0  0  0  0  0  0  0  0  0  0  0
    5.8443    2.2226   -3.4269 C   0  0  0  0  0  0  0  0  0  0  0  0
   -0.4018    2.6364   -1.2365 C   0  0  0  0  0  0  0  0  0  0  0  0
    0.7482    2.2897   -1.2253 O   0  0  0  0  0  0  0  0  0  0  0  0
   -0.9670    3.6534   -0.5885 O   0  0  0  0  0  0  0  0  0  0  0  0
   -0.1611    4.3230    0.4034 C   0  0  0  0  0  0  0  0  0  0  0  0
    0.0699    3.4382    1.6056 C   0  0  0  0  0  0  0  0  0  0  0  0
   -1.0079    2.7199    2.1212 C   0  0  0  0  0  0  0  0  0  0  0  0
    1.2890    3.3658    2.2098 C   0  0  0  0  0  0  0  0  0  0  0  0
  1  2  1  0
  1  4  2  0
  1 13  1  0
  2  3  1  0
  2  7  1  0
  3  6  1  0
  3 10  2  0
  4  5  1  0
  5  6  2  0
  5 14  1  0
  7  8  2  0
  7  9  1  0
  8 10  1  0
  8 11  1  0
  9 12  2  0
 13 15  1  0
 14 16  1  0
 14 17  1  0
 15 21  1  0
 16 18  1  0
 17 19  1  0
 18 20  1  0
 18 23  1  0
 21 22  1  0
 22 25  1  0
 23 24  1  0
 25 26  2  0
 25 27  1  0
 27 28  1  0
 28 29  1  0
 29 30  1  0
 29 31  2  0
M  END

$$$$

     RDKit          3D

 30 31  0  0  0  0  0  0  0  0999 V2000
    0.0000    0.0000    0.0000 C   0  0  0  0  0  0  0  0  0  0  0  0
    0.0000    0.0000    1.2794 N   0  0  0  0  0  0  0  0  0  0  0  0
    1.2588    0.0000    1.8406 C   0  0  0  0  0  0  0  0  0  0  0  0
    0.9416   -0.0463   -0.8432 N   0  0  0  0  0  0  0  0  0  0  0  0
    2.1721   -0.1067   -0.2079 C   0  0  0  0  0  0  0  0  0  0  0  0
    2.3823   -0.0072    1.1033 C   0  0  0  0  0  0  0  0  0  0  0  0
    1.3856    0.0525    3.1807 N   0  0  0  0  0  0  0  0  0  0  0  0
   -1.3855    0.1365   -0.5632 N   0  0  0  0  0  0  0  0  0  0  0  0
    3.3164   -0.3045   -1.1602 C   0  0  0  0  0  0  0  0  0  0  0  0
    3.2884   -1.6486   -1.9404 C   0  0  0  0  0  0  0  0  0  0  0  0
    0.3883   -0.0160    4.1409 C   0  0  0  0  0  0  0  0  0  0  0  0
    0.6384    0.4439    5.4503 C   0  0  0  0  0  0  0  0  0  0  0  0
   -0.8525   -0.5979    3.9328 C   0  0  0  0  0  0  0  0  0  0  0  0
   -0.3055    0.3506    6.4503 C   0  0  0  0  0  0  0  0  0  0  0  0
   -1.7900   -0.6856    4.9285 C   0  0  0  0  0  0  0  0  0  0  0  0
   -1.5714   -0.2159    6.1949 C   0  0  0  0  0  0  0  0  0  0  0  0
    3.3988    0.7680   -2.1466 N   0  0  0  0  0  0  0  0  0  0  0  0
    2.3018    0.9998   -3.0416 C   0  0  0  0  0  0  0  0  0  0  0  0
    4.6727    1.1915   -2.3798 C   0  0  0  0  0  0  0  0  0  0  0  0
    4.9849    2.0383   -3.1935 O   0  0  0  0  0  0  0  0  0  0  0  0
    5.6098    0.4197   -1.4666 C   0  0  0  0  0  0  0  0  0  0  0  0
    6.8362    0.4691   -1.4011 O   0  0  0  0  0  0  0  0  0  0  0  0
    2.2570   -0.0479   -4.0086 O   0  0  0  0  0  0  0  0  0  0  0  0
    1.9247    0.9222    5.5770 O   0  0  0  0  0  0  0  0  0  0  0  0
    2.2060    1.4404    6.8580 C   0  0  0  0  0  0  0  0  0  0  0  0
    3.3822   -1.2594   -3.4058 C   0  0  0  0  0  0  0  0  0  0  0  0
    2.8312    0.1618   -5.1917 C   0  0  0  0  0  0  0  0  0  0  0  0
    3.2012    1.2483   -5.5691 O   0  0  0  0  0  0  0  0  0  0  0  0
    2.9183   -1.1148   -5.9943 C   0  0  0  0  0  0  0  0  0  0  0  0
    3.4651   -2.2602   -5.1438 C   0  0  0  0  0  0  0  0  0  0  0  0
  1  2  2  0
  1  4  1  0
  1  8  1  0
  2  3  1  0
  3  6  2  0
  3  7  1  0
  4  5  2  0
  5  6  1  0
  5  9  1  0
  7 11  1  0
  9 10  1  0
  9 17  1  0
 10 26  1  0
 11 12  2  0
 11 13  1  0
 12 14  1  0
 12 24  1  0
 13 15  2  0
 14 16  2  0
 15 16  1  0
 17 18  1  0
 17 19  1  0
 18 23  1  0
 19 20  2  0
 19 21  1  0
 21 22  2  0
 23 27  1  0
 24 25  1  0
 27 28  2  0
 27 29  1  0
 29 30  1  0
M  END

$$$$

     RDKit          3D

 11 12  0  0  0  0  0  0  0  0999 V2000
    0.0000    0.0000    0.0000 N   0  0  0  0  0  0  0  0  0  0  0  0
    0.0000    0.0000    1.3090 C   0  0  0  0  0  0  0  0  0  0  0  0
    1.1499    0.0000    2.0688 N   0  0  0  0  0  0  0  0  0  0  0  0
    1.2465   -0.1849   -0.5776 C   0  0  0  0  0  0  0  0  0  0  0  0
    2.4400   -0.1849    0.1116 C   0  0  0  0  0  0  0  0  0  0  0  0
    2.2498   -0.0878    1.5136 C   0  0  0  0  0  0  0  0  0  0  0  0
    3.7674   -0.3824   -0.1242 N   0  0  0  0  0  0  0  0  0  0  0  0
    1.1522   -0.4484   -1.9271 N   0  0  0  0  0  0  0  0  0  0  0  0
   -1.2371    0.0608    1.8767 N   0  0  0  0  0  0  0  0  0  0  0  0
    4.5187   -0.4056    1.0123 C   0  0  0  0  0  0  0  0  0  0  0  0
    3.6931   -0.1768    1.9723 N   0  0  0  0  0  0  0  0  0  0  0  0
  1  2  2  0
  1  4  1  0
  2  3  1  0
  2  9  1  0
  3  6  2  0
  4  5  2  0
  4  8  1  0
  5  6  1  0
  5  7  1  0
  6 11  1  0
  7 10  1  0
 10 11  2  0
M  END

$$$$

     RDKit          3D

 31 33  0  0  0  0  0  0  0  0999 V2000
    0.0000    0.0000    0.0000 C   0  0  0  0  0  0  0  0  0  0  0  0
    0.0000    0.0000    1.3470 C   0  0  0  0  0  0  0  0  0  0  0  0
    1.1433    0.0000    2.1025 N   0  0  0  0  0  0  0  0  0  0  0  0
    1.2533    0.0000   -0.6463 C   0  0  0  0  0  0  0  0  0  0  0  0
    2.3987    0.0000    0.0917 N   0  0  0  0  0  0  0  0  0  0  0  0
    2.2714    0.0000    1.4097 C   0  0  0  0  0  0  0  0  0  0  0  0
    1.0977    0.0456    3.3657 O   0  0  0  0  0  0  0  0  0  0  0  0
    3.6115   -0.0589    2.1040 C   0  0  0  0  0  0  0  0  0  0  0  0
    3.6715   -0.1138    3.3025 O   0  0  0  0  0  0  0  0  0  0  0  0
    4.6910   -0.0519    1.3112 O   0  0  0  0  0  0  0  0  0  0  0  0
    1.3773   -0.0514   -1.9560 N   0  0  0  0  0  0  0  0  0  0  0  0
    0.3772   -0.1149   -2.9825 C   0  0  0  0  0  0  0  0  0  0  0  0
    1.0379   -0.0974   -4.3503 C   0  0  0  0  0  0  0  0  0  0  0  0
    1.8493   -1.3764   -4.6996 C   0  0  0  0  0  0  0  0  0  0  0  0
    0.9334   -2.5878   -4.7357 C   0  0  0  0  0  0  0  0  0  0  0  0
    0.6239   -3.1878   -3.5160 C   0  0  0  0  0  0  0  0  0  0  0  0
    0.3431   -2.9881   -5.9336 C   0  0  0  0  0  0  0  0  0  0  0  0
   -0.3038   -4.1937   -3.5897 C   0  0  0  0  0  0  0  0  0  0  0  0
   -0.6037   -4.0096   -5.9950 C   0  0  0  0  0  0  0  0  0  0  0  0
   -0.8747   -4.6630   -4.7530 C   0  0  0  0  0  0  0  0  0  0  0  0
   -0.8229   -4.9096   -2.5222 O   0  0  0  0  0  0  0  0  0  0  0  0
    0.7659   -2.3335   -7.2074 C   0  0  0  0  0  0  0  0  0  0  0  0
    2.8945   -1.4742   -3.7338 O   0  0  0  0  0  0  0  0  0  0  0  0
    2.5753   -1.1423   -6.0133 C   0  0  0  0  0  0  0  0  0  0  0  0
    3.9646   -1.1471   -6.1290 C   0  0  0  0  0  0  0  0  0  0  0  0
    1.8008   -0.8956   -7.1558 C   0  0  0  0  0  0  0  0  0  0  0  0
    4.5868   -0.8779   -7.3472 C   0  0  0  0  0  0  0  0  0  0  0  0
    2.4165   -0.6289   -8.3597 C   0  0  0  0  0  0  0  0  0  0  0  0
    3.8122   -0.6636   -8.4475 C   0  0  0  0  0  0  0  0  0  0  0  0
    4.1003   -0.4343   -9.7757 O   0  0  0  0  0  0  0  0  0  0  0  0
    2.9097   -0.3312  -10.5091 C   0  0  0  0  0  0  0  0  0  0  0  0
  1  2  2  0
  1  4  1  0
  2  3  1  0
  3  6  1  0
  3  7  1  0
  4  5  1  0
  4 11  2  3
  5  6  2  0
  6  8  1  0
  8  9  2  0
  8 10  1  0
 11 12  1  0
 12 13  1  0
 13 14  1  0
 14 15  1  0
 14 23  1  0
 14 24  1  0
 15 16  2  0
 15 17  1  0
 16 18  1  0
 17 19  2  0
 17 22  1  0
 18 20  2  0
 18 21  1  0
 19 20  1  0
 24 25  2  0
 24 26  1  0
 25 27  1  0
 26 28  2  0
 27 29  2  0
 28 29  1  0
 29 30  1  0
 30 31  1  0
M  END

$$$$

     RDKit          3D

 30 32  0  0  0  0  0  0  0  0999 V2000
    0.0000    0.0000    0.0000 C   0  0  0  0  0  0  0  0  0  0  0  0
    0.0000    0.0000    1.2794 N   0  0  0  0  0  0  0  0  0  0  0  0
    1.2588    0.0000    1.8406 C   0  0  0  0  0  0  0  0  0  0  0  0
    0.9416   -0.0463   -0.8432 N   0  0  0  0  0  0  0  0  0  0  0  0
    2.1721   -0.1067   -0.2079 C   0  0  0  0  0  0  0  0  0  0  0  0
    2.3823   -0.0072    1.1033 C   0  0  0  0  0  0  0  0  0  0  0  0
    3.3156   -0.2168   -1.1620 C   0  0  0  0  0  0  0  0  0  0  0  0
   -1.3855    0.1365   -0.5632 N   0  0  0  0  0  0  0  0  0  0  0  0
    1.3082   -0.0494    3.2092 N   0  0  0  0  0  0  0  0  0  0  0  0
    0.2764    0.0845    4.1131 C   0  0  0  0  0  0  0  0  0  0  0  0
    0.4305    0.4136    5.3474 N   0  0  0  0  0  0  0  0  0  0  0  0
   -1.3426   -0.2869    3.6550 S   0  0  0  0  0  0  0  0  0  0  0  0
   -0.6982    0.4435    6.0961 C   0  0  0  0  0  0  0  0  0  0  0  0
   -1.7378    0.1018    5.3179 C   0  0  0  0  0  0  0  0  0  0  0  0
   -0.6663    0.8679    7.5364 C   0  0  0  0  0  0  0  0  0  0  0  0
    0.6704    0.3948    8.0815 C   0  0  0  0  0  0  0  0  0  0  0  0
    0.8633   -0.6926    8.5542 O   0  0  0  0  0  0  0  0  0  0  0  0
   -3.1360    0.0504    5.7028 C   0  0  0  0  0  0  0  0  0  0  0  0
   -4.1225    0.4542    4.8292 C   0  0  0  0  0  0  0  0  0  0  0  0
   -3.4829   -0.4259    6.9840 C   0  0  0  0  0  0  0  0  0  0  0  0
   -5.4661    0.4698    5.1695 C   0  0  0  0  0  0  0  0  0  0  0  0
   -4.8188   -0.4103    7.3228 C   0  0  0  0  0  0  0  0  0  0  0  0
   -5.8616    0.0699    6.4278 C   0  0  0  0  0  0  0  0  0  0  0  0
   -2.5355   -0.8834    7.8252 O   0  0  0  0  0  0  0  0  0  0  0  0
   -7.1414    0.0912    6.8950 O   0  0  0  0  0  0  0  0  0  0  0  0
   -8.1611    0.5686    6.0060 C   0  0  0  0  0  0  0  0  0  0  0  0
   -9.4240    0.6291    6.8793 C   0  0  0  0  0  0  0  0  0  0  0  0
  -10.0956    1.9149    6.4280 C   0  0  0  0  0  0  0  0  0  0  0  0
   -8.9738    2.8733    6.1048 C   0  0  0  0  0  0  0  0  0  0  0  0
   -8.5633   -0.4887    4.9530 C   0  0  0  0  0  0  0  0  0  0  0  0
  1  2  2  0
  1  4  1  0
  1  8  1  0
  2  3  1  0
  3  6  2  0
  3  9  1  0
  4  5  2  0
  5  6  1  0
  5  7  1  0
  9 10  1  0
 10 11  2  0
 10 12  1  0
 11 13  1  0
 12 14  1  0
 13 14  2  0
 13 15  1  0
 14 18  1  0
 15 16  1  0
 16 17  2  0
 18 19  2  0
 18 20  1  0
 19 21  1  0
 20 22  2  0
 20 24  1  0
 21 23  2  0
 22 23  1  0
 23 25  1  0
 25 26  1  0
 26 27  1  0
 26 30  1  0
 27 28  1  0
 28 29  1  0
M  END

$$$$

     RDKit          3D

 33 37  0  0  0  0  0  0  0  0999 V2000
    0.0000    0.0000    0.0000 N   0  0  0  0  0  0  0  0  0  0  0  0
    0.0000    0.0000    1.3241 C   0  0  0  0  0  0  0  0  0  0  0  0
    1.2910    0.0000    2.0048 C   0  0  0  0  0  0  0  0  0  0  0  0
    1.0888   -0.1072   -0.7050 C   0  0  0  0  0  0  0  0  0  0  0  0
    2.3189   -0.1677   -0.1405 N   0  0  0  0  0  0  0  0  0  0  0  0
    2.3878   -0.1698    1.2680 C   0  0  0  0  0  0  0  0  0  0  0  0
    3.5718   -0.2233   -0.6321 N   0  0  0  0  0  0  0  0  0  0  0  0
    3.6671   -0.1801    1.6378 N   0  0  0  0  0  0  0  0  0  0  0  0
    4.4040   -0.2161    0.3977 C   0  0  0  0  0  0  0  0  0  0  0  0
    0.9176   -0.2478   -2.1391 C   0  0  0  0  0  0  0  0  0  0  0  0
   -0.0999    0.3115   -2.8522 C   0  0  0  0  0  0  0  0  0  0  0  0
    1.7386   -1.1702   -2.9326 C   0  0  0  0  0  0  0  0  0  0  0  0
   -0.0259   -0.1612   -4.1364 N   0  0  0  0  0  0  0  0  0  0  0  0
    2.7154   -1.8476   -2.6201 O   0  0  0  0  0  0  0  0  0  0  0  0
    1.1475   -1.1008   -4.1670 N   0  0  0  0  0  0  0  0  0  0  0  0
   -1.1585    0.0569    1.9938 N   0  0  0  0  0  0  0  0  0  0  0  0
   -1.1119    1.3227   -2.4549 C   0  0  0  0  0  0  0  0  0  0  0  0
   -1.2892    0.1187    3.4046 C   0  0  0  0  0  0  0  0  0  0  0  0
   -2.0844   -0.8031    4.0674 C   0  0  0  0  0  0  0  0  0  0  0  0
   -0.6237    1.1110    4.1230 C   0  0  0  0  0  0  0  0  0  0  0  0
   -2.2030   -0.8128    5.4485 C   0  0  0  0  0  0  0  0  0  0  0  0
   -0.6798    1.0497    5.4988 C   0  0  0  0  0  0  0  0  0  0  0  0
   -1.5210    0.1118    6.2240 C   0  0  0  0  0  0  0  0  0  0  0  0
   -2.4092    0.1801    1.2682 C   0  0  0  0  0  0  0  0  0  0  0  0
   -1.5158    0.1681    7.5621 O   0  0  0  0  0  0  0  0  0  0  0  0
    1.6391   -1.7913   -5.2838 C   0  0  0  0  0  0  0  0  0  0  0  0
    1.8296   -3.1641   -5.2599 C   0  0  0  0  0  0  0  0  0  0  0  0
    1.8843   -1.0648   -6.4673 C   0  0  0  0  0  0  0  0  0  0  0  0
    2.1820   -3.8948   -6.3547 C   0  0  0  0  0  0  0  0  0  0  0  0
    2.2471   -1.8174   -7.5833 C   0  0  0  0  0  0  0  0  0  0  0  0
    2.3657   -3.2453   -7.5745 C   0  0  0  0  0  0  0  0  0  0  0  0
   -0.0230    1.9354    6.3123 O   0  0  0  0  0  0  0  0  0  0  0  0
    1.7673    0.2805   -6.3585 O   0  0  0  0  0  0  0  0  0  0  0  0
  1  2  1  0
  1  4  2  0
  2  3  2  0
  2 16  1  0
  3  6  1  0
  4  5  1  0
  4 10  1  0
  5  6  1  0
  5  7  1  0
  6  8  2  0
  7  9  2  0
  8  9  1  0
 10 11  2  0
 10 12  1  0
 11 13  1  0
 11 17  1  0
 12 14  2  0
 12 15  1  0
 13 15  1  0
 15 26  1  0
 16 18  1  0
 16 24  1  0
 18 19  2  0
 18 20  1  0
 19 21  1  0
 20 22  2  0
 21 23  2  0
 22 23  1  0
 22 32  1  0
 23 25  1  0
 26 27  2  0
 26 28  1  0
 27 29  1  0
 28 30  2  0
 28 33  1  0
 29 31  2  0
 30 31  1  0
M  END

$$$$

     RDKit          3D

 31 33  0  0  0  0  0  0  0  0999 V2000
    0.0000    0.0000    0.0000 N   0  0  0  0  0  0  0  0  0  0  0  0
    0.0000    0.0000    1.2941 C   0  0  0  0  0  0  0  0  0  0  0  0
    1.0988    0.0000    2.0464 N   0  0  0  0  0  0  0  0  0  0  0  0
    1.1585   -0.0569   -0.6697 C   0  0  0  0  0  0  0  0  0  0  0  0
    2.4092    0.0663    0.0559 C   0  0  0  0  0  0  0  0  0  0  0  0
    2.2811    0.0717    1.3436 C   0  0  0  0  0  0  0  0  0  0  0  0
    1.0970   -0.2482   -1.9708 N   0  0  0  0  0  0  0  0  0  0  0  0
    2.1649   -0.4037   -2.9036 C   0  0  0  0  0  0  0  0  0  0  0  0
    3.9678    0.3081   -0.6620 Cl  0  0  0  0  0  0  0  0  0  0  0  0
    2.0822    0.7005   -3.9691 C   0  0  0  0  0  0  0  0  0  0  0  0
    2.1721   -1.7444   -3.4368 O   0  0  0  0  0  0  0  0  0  0  0  0
    1.1555   -0.2115    3.4642 C   0  0  0  0  0  0  0  0  0  0  0  0
    1.9851   -1.4961    3.7428 C   0  0  0  0  0  0  0  0  0  0  0  0
    2.5967   -1.9324    2.7790 O   0  0  0  0  0  0  0  0  0  0  0  0
    2.8326   -2.6941   -2.7770 C   0  0  0  0  0  0  0  0  0  0  0  0
    3.4347   -2.5046   -1.7468 O   0  0  0  0  0  0  0  0  0  0  0  0
    1.9667   -2.0625    5.0877 C   0  0  0  0  0  0  0  0  0  0  0  0
    2.5939   -3.2961    5.3586 C   0  0  0  0  0  0  0  0  0  0  0  0
    1.3588   -1.3641    6.1620 C   0  0  0  0  0  0  0  0  0  0  0  0
    2.6452   -3.8488    6.6288 C   0  0  0  0  0  0  0  0  0  0  0  0
    1.4094   -1.9192    7.4312 C   0  0  0  0  0  0  0  0  0  0  0  0
    2.0674   -3.1872    7.6909 C   0  0  0  0  0  0  0  0  0  0  0  0
    2.7651   -3.9788   -3.5181 C   0  0  0  0  0  0  0  0  0  0  0  0
    2.0568   -4.1562   -4.6964 C   0  0  0  0  0  0  0  0  0  0  0  0
    3.4760   -5.0535   -2.9452 C   0  0  0  0  0  0  0  0  0  0  0  0
    2.1140   -5.3841   -5.3197 C   0  0  0  0  0  0  0  0  0  0  0  0
    3.5328   -6.2817   -3.5679 C   0  0  0  0  0  0  0  0  0  0  0  0
    2.8803   -6.3942   -4.7399 C   0  0  0  0  0  0  0  0  0  0  0  0
    0.7813   -0.1676    5.9919 O   0  0  0  0  0  0  0  0  0  0  0  0
    3.4078   -4.1948    4.1343 Cl  0  0  0  0  0  0  0  0  0  0  0  0
    2.9500   -7.6446   -5.4564 N   0  0  0  0  0  0  0  0  0  0  0  0
  1  2  2  0
  1  4  1  0
  2  3  1  0
  3  6  1  0
  3 12  1  0
  4  5  1  0
  4  7  2  3
  5  6  2  0
  5  9  1  0
  7  8  1  0
  8 10  1  0
  8 11  1  0
 11 15  1  0
 12 13  1  0
 13 14  2  0
 13 17  1  0
 15 16  2  0
 15 23  1  0
 17 18  2  0
 17 19  1  0
 18 20  1  0
 18 30  1  0
 19 21  2  0
 19 29  1  0
 20 22  2  0
 21 22  1  0
 23 24  2  0
 23 25  1  0
 24 26  1  0
 25 27  2  0
 26 28  2  0
 27 28  1  0
 28 31  1  0
M  END

$$$$

     RDKit          3D

 18 18  0  0  0  0  0  0  0  0999 V2000
    0.0000    0.0000    0.0000 C   0  0  0  0  0  0  0  0  0  0  0  0
    0.0000    0.0000    1.3317 C   0  0  0  0  0  0  0  0  0  0  0  0
    1.0801    0.0000    2.0712 N   0  0  0  0  0  0  0  0  0  0  0  0
    1.2153   -0.2417   -0.6390 C   0  0  0  0  0  0  0  0  0  0  0  0
    2.4017   -0.3586    0.1293 N   0  0  0  0  0  0  0  0  0  0  0  0
    2.2251   -0.2743    1.4085 C   0  0  0  0  0  0  0  0  0  0  0  0
    1.4955   -0.4627   -2.0032 C   0  0  0  0  0  0  0  0  0  0  0  0
    0.7309   -0.7194   -3.1111 C   0  0  0  0  0  0  0  0  0  0  0  0
   -1.2991   -0.0638    2.0826 C   0  0  0  0  0  0  0  0  0  0  0  0
   -2.3168   -0.5452    1.3571 F   0  0  0  0  0  0  0  0  0  0  0  0
    3.3182   -0.3310    2.1669 N   0  0  0  0  0  0  0  0  0  0  0  0
    1.4156   -0.9386   -4.3243 C   0  0  0  0  0  0  0  0  0  0  0  0
    2.0215   -1.1633   -5.2885 N   0  0  0  0  0  0  0  0  0  0  0  0
   -1.7331    1.1493    2.4755 F   0  0  0  0  0  0  0  0  0  0  0  0
   -0.7664   -0.7078   -3.2266 C   0  0  0  0  0  0  0  0  0  0  0  0
   -1.5111   -0.0585   -2.5553 O   0  0  0  0  0  0  0  0  0  0  0  0
   -1.2123   -0.7802    3.2109 F   0  0  0  0  0  0  0  0  0  0  0  0
   -1.1629   -1.4616   -4.2602 O   0  0  0  0  0  0  0  0  0  0  0  0
  1  2  2  0
  1  4  1  0
  2  3  1  0
  2  9  1  0
  3  6  2  0
  4  5  2  0
  4  7  1  0
  5  6  1  0
  6 11  1  0
  7  8  2  3
  8 12  1  0
  8 15  1  0
  9 10  1  0
  9 14  1  0
  9 17  1  0
 12 13  3  0
 15 16  2  0
 15 18  1  0
M  END

$$$$

     RDKit          3D

 29 30  0  0  0  0  0  0  0  0999 V2000
    0.0000    0.0000    0.0000 C   0  0  0  0  0  0  0  0  0  0  0  0
    0.0000    0.0000    1.4183 C   0  0  0  0  0  0  0  0  0  0  0  0
    1.1837    0.0000    2.0931 N   0  0  0  0  0  0  0  0  0  0  0  0
    1.2320    0.0000   -0.6353 C   0  0  0  0  0  0  0  0  0  0  0  0
    2.4872    0.0617    0.0902 N   0  0  0  0  0  0  0  0  0  0  0  0
    2.2980    0.0631    1.3705 C   0  0  0  0  0  0  0  0  0  0  0  0
    3.7422    0.1209   -0.4166 C   0  0  0  0  0  0  0  0  0  0  0  0
    3.7750    0.0733    2.2957 S   0  0  0  0  0  0  0  0  0  0  0  0
    4.9530    0.1308    0.2250 C   0  0  0  0  0  0  0  0  0  0  0  0
    2.6407    0.0029    3.6040 C   0  0  0  0  0  0  0  0  0  0  0  0
   -1.0455    0.0000    2.2554 N   0  0  0  0  0  0  0  0  0  0  0  0
   -2.4195    0.2038    1.8967 C   0  0  0  0  0  0  0  0  0  0  0  0
   -1.2311   -0.2449   -0.8089 C   0  0  0  0  0  0  0  0  0  0  0  0
   -1.3727   -1.1991   -1.5016 O   0  0  0  0  0  0  0  0  0  0  0  0
    1.3458   -0.0471   -1.8372 O   0  0  0  0  0  0  0  0  0  0  0  0
   -2.2314    0.6618   -0.6960 O   0  0  0  0  0  0  0  0  0  0  0  0
    6.5502    0.2648   -0.3520 Cl  0  0  0  0  0  0  0  0  0  0  0  0
   -0.9142   -0.0544    3.6422 N   0  0  0  0  0  0  0  0  0  0  0  0
   -1.9374    1.8863   -0.1360 C   0  0  0  0  0  0  0  0  0  0  0  0
   -0.8932    2.7398   -0.5749 C   0  0  0  0  0  0  0  0  0  0  0  0
   -2.7711    2.2884    0.8746 C   0  0  0  0  0  0  0  0  0  0  0  0
   -0.5629    3.8809    0.0925 C   0  0  0  0  0  0  0  0  0  0  0  0
   -2.4414    3.4497    1.5558 C   0  0  0  0  0  0  0  0  0  0  0  0
   -1.2525    4.1697    1.2786 C   0  0  0  0  0  0  0  0  0  0  0  0
   -0.8047    5.2920    1.8738 O   0  0  0  0  0  0  0  0  0  0  0  0
   -0.2717    2.1903   -1.6558 O   0  0  0  0  0  0  0  0  0  0  0  0
   -1.2386    5.5794    3.1931 C   0  0  0  0  0  0  0  0  0  0  0  0
    0.7380    3.0242   -2.1569 C   0  0  0  0  0  0  0  0  0  0  0  0
   -0.6760    4.6380    4.2569 C   0  0  0  0  0  0  0  0  0  0  0  0
  1  2  2  0
  1  4  1  0
  1 13  1  0
  2  3  1  0
  2 11  1  0
  3  6  2  0
  4  5  1  0
  4 15  2  0
  5  6  1  0
  5  7  1  0
  6  8  1  0
  7  9  2  3
  8 10  1  0
  9 17  1  0
 11 12  1  0
 11 18  1  0
 13 14  2  0
 13 16  1  0
 16 19  1  0
 19 20  2  0
 19 21  1  0
 20 22  1  0
 20 26  1  0
 21 23  2  0
 22 24  2  0
 23 24  1  0
 24 25  1  0
 25 27  1  0
 26 28  1  0
 27 29  1  0
M  END

$$$$

     RDKit          3D

 30 31  0  0  0  0  0  0  0  0999 V2000
    0.0000    0.0000    0.0000 C   0  0  0  0  0  0  0  0  0  0  0  0
    0.0000    0.0000    1.2794 N   0  0  0  0  0  0  0  0  0  0  0  0
    1.2192    0.0000    1.9222 C   0  0  0  0  0  0  0  0  0  0  0  0
    1.0559    0.0519   -0.7592 N   0  0  0  0  0  0  0  0  0  0  0  0
    2.2771    0.0519   -0.0541 C   0  0  0  0  0  0  0  0  0  0  0  0
    2.4126    0.0614    1.3095 C   0  0  0  0  0  0  0  0  0  0  0  0
    1.1703   -0.0489    3.2752 N   0  0  0  0  0  0  0  0  0  0  0  0
    3.2985   -0.0398   -0.9750 N   0  0  0  0  0  0  0  0  0  0  0  0
   -1.3133   -0.1293   -0.6805 N   0  0  0  0  0  0  0  0  0  0  0  0
   -2.2670   -0.9121    0.1146 C   0  0  0  0  0  0  0  0  0  0  0  0
   -2.1018   -2.2596    0.3010 C   0  0  0  0  0  0  0  0  0  0  0  0
   -3.3399   -0.2888    0.7846 C   0  0  0  0  0  0  0  0  0  0  0  0
   -2.9814   -2.9462    1.1897 C   0  0  0  0  0  0  0  0  0  0  0  0
   -4.1907   -1.0673    1.5680 C   0  0  0  0  0  0  0  0  0  0  0  0
   -3.7339    1.0737    0.7805 C   0  0  0  0  0  0  0  0  0  0  0  0
   -3.9739   -2.3164    1.7826 N   0  0  0  0  0  0  0  0  0  0  0  0
   -5.6045   -0.5466    2.4242 S   0  0  0  0  0  0  0  0  0  0  0  0
   -4.8755    1.2110    1.5405 C   0  0  0  0  0  0  0  0  0  0  0  0
   -2.8254   -4.2681    1.4419 N   0  0  0  0  0  0  0  0  0  0  0  0
   -5.5673    2.4516    1.8372 C   0  0  0  0  0  0  0  0  0  0  0  0
   -5.2412    3.5417    1.3912 O   0  0  0  0  0  0  0  0  0  0  0  0
   -0.9999   -3.0228   -0.4139 C   0  0  0  0  0  0  0  0  0  0  0  0
   -3.0289    2.1855    0.0940 C   0  0  0  0  0  0  0  0  0  0  0  0
   -3.7770   -4.9325    2.3129 C   0  0  0  0  0  0  0  0  0  0  0  0
   -6.6167    2.2560    2.6461 O   0  0  0  0  0  0  0  0  0  0  0  0
   -7.3398    3.3965    3.0523 C   0  0  0  0  0  0  0  0  0  0  0  0
    0.1228   -3.4701    0.5352 C   0  0  0  0  0  0  0  0  0  0  0  0
   -1.6114   -5.0100    1.2017 C   0  0  0  0  0  0  0  0  0  0  0  0
   -3.5229   -4.6262    3.7610 C   0  0  0  0  0  0  0  0  0  0  0  0
   -4.4488   -4.2247    4.6065 C   0  0  0  0  0  0  0  0  0  0  0  0
  1  2  2  0
  1  4  1  0
  1  9  1  0
  2  3  1  0
  3  6  2  0
  3  7  1  0
  4  5  2  0
  5  6  1  0
  5  8  1  0
  9 10  1  0
 10 11  2  0
 10 12  1  0
 11 13  1  0
 11 22  1  0
 12 14  2  0
 12 15  1  0
 13 16  2  0
 13 19  1  0
 14 16  1  0
 14 17  1  0
 15 18  2  3
 15 23  1  0
 18 20  1  0
 19 24  1  0
 19 28  1  0
 20 21  2  0
 20 25  1  0
 22 27  1  0
 24 29  1  0
 25 26  1  0
 29 30  2  0
M  END

$$$$

     RDKit          3D

 30 32  0  0  0  0  0  0  0  0999 V2000
    0.0000    0.0000    0.0000 C   0  0  0  0  0  0  0  0  0  0  0  0
    0.0000    0.0000    1.3317 N   0  0  0  0  0  0  0  0  0  0  0  0
    1.2931    0.0000    1.7613 C   0  0  0  0  0  0  0  0  0  0  0  0
    1.0576    0.0000   -0.8467 C   0  0  0  0  0  0  0  0  0  0  0  0
    2.3181    0.0000   -0.1967 C   0  0  0  0  0  0  0  0  0  0  0  0
    2.4578    0.0000    1.1587 N   0  0  0  0  0  0  0  0  0  0  0  0
    1.0766   -0.0580    3.2119 N   0  0  0  0  0  0  0  0  0  0  0  0
    3.3863   -0.0480   -0.9904 N   0  0  0  0  0  0  0  0  0  0  0  0
    1.6271   -1.3573    3.7508 C   0  0  0  0  0  0  0  0  0  0  0  0
    0.8192   -2.5475    3.2624 C   0  0  0  0  0  0  0  0  0  0  0  0
    4.7025    0.0019   -0.4643 C   0  0  0  0  0  0  0  0  0  0  0  0
    5.1057    0.7755    0.6129 C   0  0  0  0  0  0  0  0  0  0  0  0
    5.6871   -0.6734   -1.2147 C   0  0  0  0  0  0  0  0  0  0  0  0
    6.4164    0.8288    1.0608 C   0  0  0  0  0  0  0  0  0  0  0  0
    7.0121   -0.6096   -0.7605 C   0  0  0  0  0  0  0  0  0  0  0  0
    7.3837    0.0852    0.4199 C   0  0  0  0  0  0  0  0  0  0  0  0
    8.0929   -1.2593   -1.5442 C   0  0  0  0  0  0  0  0  0  0  0  0
    1.5780   -1.2646    5.2663 C   0  0  0  0  0  0  0  0  0  0  0  0
    8.3509   -0.3604   -3.1354 S   0  0  0  0  0  0  0  0  0  0  0  0
    5.3269   -1.4850   -2.4046 C   0  0  0  0  0  0  0  0  0  0  0  0
    4.4088   -1.0871   -3.1062 O   0  0  0  0  0  0  0  0  0  0  0  0
    8.2917    1.2968   -2.4793 C   0  0  0  0  0  0  0  0  0  0  0  0
    9.2300    1.7298   -1.5435 C   0  0  0  0  0  0  0  0  0  0  0  0
    7.2584    2.1528   -2.9129 C   0  0  0  0  0  0  0  0  0  0  0  0
    9.1122    3.0323   -1.0163 C   0  0  0  0  0  0  0  0  0  0  0  0
    7.2010    3.4570   -2.4711 C   0  0  0  0  0  0  0  0  0  0  0  0
    8.0943    3.8059   -1.4406 C   0  0  0  0  0  0  0  0  0  0  0  0
   10.4626    0.9450   -1.1609 C   0  0  0  0  0  0  0  0  0  0  0  0
    5.8507   -2.6815   -2.5703 O   0  0  0  0  0  0  0  0  0  0  0  0
    6.2451    1.6282   -3.9158 C   0  0  0  0  0  0  0  0  0  0  0  0
  1  2  2  0
  1  4  1  0
  2  3  1  0
  3  6  2  0
  3  7  1  0
  4  5  2  0
  5  6  1  0
  5  8  1  0
  7  9  1  0
  8 11  1  0
  9 10  1  0
  9 18  1  0
 11 12  2  0
 11 13  1  0
 12 14  1  0
 13 15  2  0
 13 20  1  0
 14 16  2  0
 15 16  1  0
 15 17  1  0
 17 19  1  0
 19 22  1  0
 20 21  2  0
 20 29  1  0
 22 23  2  0
 22 24  1  0
 23 25  1  0
 23 28  1  0
 24 26  2  0
 24 30  1  0
 25 27  2  0
 26 27  1  0
M  END

$$$$

     RDKit          3D

 30 32  0  0  0  0  0  0  0  0999 V2000
    0.0000    0.0000    0.0000 C   0  0  0  0  0  0  0  0  0  0  0  0
    0.0000    0.0000    1.3317 C   0  0  0  0  0  0  0  0  0  0  0  0
    1.3687    0.0000    1.7615 C   0  0  0  0  0  0  0  0  0  0  0  0
    1.0438    0.0513   -0.9347 N   0  0  0  0  0  0  0  0  0  0  0  0
    2.2581    0.0513   -0.2337 C   0  0  0  0  0  0  0  0  0  0  0  0
    2.4648    0.1220    1.0955 N   0  0  0  0  0  0  0  0  0  0  0  0
    1.9492    0.0572    3.0994 N   0  0  0  0  0  0  0  0  0  0  0  0
    1.0438    1.1516   -1.9189 C   0  0  0  0  0  0  0  0  0  0  0  0
    1.9497    1.9866   -2.0205 N   0  0  0  0  0  0  0  0  0  0  0  0
    3.1905   -0.0232   -1.1387 N   0  0  0  0  0  0  0  0  0  0  0  0
   -0.2518    1.1890   -2.6255 C   0  0  0  0  0  0  0  0  0  0  0  0
    3.1706   -0.7758    3.2362 C   0  0  0  0  0  0  0  0  0  0  0  0
    2.7780   -2.2341    3.3998 C   0  0  0  0  0  0  0  0  0  0  0  0
    2.8097   -0.1385   -2.5429 C   0  0  0  0  0  0  0  0  0  0  0  0
    2.2548    1.4123    3.5470 C   0  0  0  0  0  0  0  0  0  0  0  0
    2.9667    1.6930    4.7411 C   0  0  0  0  0  0  0  0  0  0  0  0
    1.7775    2.4459    2.7702 C   0  0  0  0  0  0  0  0  0  0  0  0
    3.2512    3.0666    5.0416 C   0  0  0  0  0  0  0  0  0  0  0  0
    3.3845    0.6690    5.6290 C   0  0  0  0  0  0  0  0  0  0  0  0
    2.1363    3.7193    3.2098 C   0  0  0  0  0  0  0  0  0  0  0  0
    2.8155    4.0860    4.1440 C   0  0  0  0  0  0  0  0  0  0  0  0
    3.9958    3.3897    6.1849 C   0  0  0  0  0  0  0  0  0  0  0  0
    4.1192    1.0653    6.7356 C   0  0  0  0  0  0  0  0  0  0  0  0
    4.3946    2.4190    7.0293 C   0  0  0  0  0  0  0  0  0  0  0  0
    3.1103   -0.6379    5.3580 O   0  0  0  0  0  0  0  0  0  0  0  0
    3.5560   -1.7119    6.1981 C   0  0  0  0  0  0  0  0  0  0  0  0
    3.1295   -2.9988    5.5722 C   0  0  0  0  0  0  0  0  0  0  0  0
    3.9461   -3.9846    5.2052 C   0  0  0  0  0  0  0  0  0  0  0  0
    5.4081   -4.0319    5.3276 C   0  0  0  0  0  0  0  0  0  0  0  0
    6.0950   -3.1616    5.7900 O   0  0  0  0  0  0  0  0  0  0  0  0
  1  2  2  0
  1  4  1  0
  2  3  1  0
  3  6  2  0
  3  7  1  0
  4  5  1  0
  4  8  1  0
  5  6  1  0
  5 10  2  3
  7 12  1  0
  7 15  1  0
  8  9  2  0
  8 11  1  0
 10 14  1  0
 12 13  1  0
 15 16  1  0
 15 17  2  0
 16 18  2  0
 16 19  1  0
 17 20  1  0
 18 21  1  0
 18 22  1  0
 19 23  2  0
 19 25  1  0
 20 21  3  0
 22 24  2  0
 23 24  1  0
 25 26  1  0
 26 27  1  0
 27 28  2  3
 28 29  1  0
 29 30  2  0
M  END

$$$$

     RDKit          3D

 11 11  0  0  0  0  0  0  0  0999 V2000
    0.0000    0.0000    0.0000 C   0  0  0  0  0  0  0  0  0  0  0  0
    0.0000    0.0000    1.3470 N   0  0  0  0  0  0  0  0  0  0  0  0
    1.2566    0.0000    1.9323 C   0  0  0  0  0  0  0  0  0  0  0  0
    1.0680    0.0525   -0.7680 N   0  0  0  0  0  0  0  0  0  0  0  0
    2.2696   -0.0659   -0.0709 C   0  0  0  0  0  0  0  0  0  0  0  0
    2.3395   -0.1094    1.2813 C   0  0  0  0  0  0  0  0  0  0  0  0
    1.3043    0.0478    3.2546 N   0  0  0  0  0  0  0  0  0  0  0  0
    3.3805   -0.2168   -0.8314 N   0  0  0  0  0  0  0  0  0  0  0  0
   -1.0955   -0.1079    2.2284 O   0  0  0  0  0  0  0  0  0  0  0  0
   -1.6378   -1.4171    2.2875 C   0  0  0  0  0  0  0  0  0  0  0  0
   -1.2052   -0.1187   -0.6245 N   0  0  0  0  0  0  0  0  0  0  0  0
  1  2  1  0
  1  4  2  0
  1 11  1  0
  2  3  1  0
  2  9  1  0
  3  6  1  0
  3  7  2  0
  4  5  1  0
  5  6  2  0
  5  8  1  0
  9 10  1  0
M  END

$$$$

     RDKit          3D

 23 25  0  0  0  0  0  0  0  0999 V2000
    0.0000    0.0000    0.0000 N   0  0  0  0  0  0  0  0  0  0  0  0
    0.0000    0.0000    1.3470 C   0  0  0  0  0  0  0  0  0  0  0  0
    0.9927    0.0000    2.1541 N   0  0  0  0  0  0  0  0  0  0  0  0
    1.2231   -0.0601   -0.5613 C   0  0  0  0  0  0  0  0  0  0  0  0
    2.3425   -0.0601    0.2427 C   0  0  0  0  0  0  0  0  0  0  0  0
    2.2226   -0.0578    1.5165 C   0  0  0  0  0  0  0  0  0  0  0  0
    1.3451   -0.1178   -1.8785 O   0  0  0  0  0  0  0  0  0  0  0  0
    2.7225   -0.4342   -2.1246 C   0  0  0  0  0  0  0  0  0  0  0  0
    3.5208   -0.0753   -0.8616 C   0  0  0  0  0  0  0  0  0  0  0  0
    2.7914   -1.9369   -2.4386 C   0  0  0  0  0  0  0  0  0  0  0  0
    2.5783   -2.7051   -1.2656 O   0  0  0  0  0  0  0  0  0  0  0  0
    1.5847   -3.7053   -1.2983 C   0  0  0  0  0  0  0  0  0  0  0  0
    3.4562    0.0819    2.3308 C   0  0  0  0  0  0  0  0  0  0  0  0
    0.4482   -3.3513   -0.3545 C   0  0  0  0  0  0  0  0  0  0  0  0
   -0.4372   -2.2982   -0.6247 C   0  0  0  0  0  0  0  0  0  0  0  0
    0.0992   -4.1060    0.7645 C   0  0  0  0  0  0  0  0  0  0  0  0
   -1.5690   -2.0177    0.1394 C   0  0  0  0  0  0  0  0  0  0  0  0
   -1.0259   -3.8110    1.5185 C   0  0  0  0  0  0  0  0  0  0  0  0
   -1.7633   -2.8177    1.2547 C   0  0  0  0  0  0  0  0  0  0  0  0
   -0.0497   -1.5712   -1.7101 O   0  0  0  0  0  0  0  0  0  0  0  0
    1.0967   -5.4060    1.2976 Cl  0  0  0  0  0  0  0  0  0  0  0  0
   -3.1837   -2.4714    2.1097 Cl  0  0  0  0  0  0  0  0  0  0  0  0
   -0.9702   -0.5881   -2.1000 C   0  0  0  0  0  0  0  0  0  0  0  0
  1  2  2  0
  1  4  1  0
  2  3  1  0
  3  6  2  0
  4  5  2  0
  4  7  1  0
  5  6  1  0
  5  9  1  0
  6 13  1  0
  7  8  1  0
  8  9  1  0
  8 10  1  0
 10 11  1  0
 11 12  1  0
 12 14  1  0
 14 15  2  0
 14 16  1  0
 15 17  1  0
 15 20  1  0
 16 18  2  0
 16 21  1  0
 17 19  2  0
 18 19  1  0
 19 22  1  0
 20 23  1  0
M  END

$$$$

     RDKit          3D

 29 31  0  0  0  0  0  0  0  0999 V2000
    0.0000    0.0000    0.0000 N   0  0  0  0  0  0  0  0  0  0  0  0
    0.0000    0.0000    1.3782 C   0  0  0  0  0  0  0  0  0  0  0  0
    1.0925    0.0000    2.1530 N   0  0  0  0  0  0  0  0  0  0  0  0
    1.2022    0.0591   -0.5517 C   0  0  0  0  0  0  0  0  0  0  0  0
    2.3776    0.1168    0.0552 C   0  0  0  0  0  0  0  0  0  0  0  0
    2.3116    0.1136    1.4801 C   0  0  0  0  0  0  0  0  0  0  0  0
   -1.0883    0.0000    2.2496 C   0  0  0  0  0  0  0  0  0  0  0  0
   -0.4603   -0.0549    3.5110 C   0  0  0  0  0  0  0  0  0  0  0  0
    0.8618   -0.0352    3.4410 N   0  0  0  0  0  0  0  0  0  0  0  0
    3.6287    0.2349   -0.6705 C   0  0  0  0  0  0  0  0  0  0  0  0
    3.6313    0.0549   -2.0133 C   0  0  0  0  0  0  0  0  0  0  0  0
   -1.0899   -0.0231    4.8741 C   0  0  0  0  0  0  0  0  0  0  0  0
   -1.4873    1.4235    5.2065 C   0  0  0  0  0  0  0  0  0  0  0  0
    3.5194    0.1169    2.2542 C   0  0  0  0  0  0  0  0  0  0  0  0
    4.7503   -0.3818    2.0292 C   0  0  0  0  0  0  0  0  0  0  0  0
    5.8549   -0.3190    2.9938 C   0  0  0  0  0  0  0  0  0  0  0  0
    5.7943    0.2832    4.0394 O   0  0  0  0  0  0  0  0  0  0  0  0
   -2.3146   -0.9407    5.0143 C   0  0  0  0  0  0  0  0  0  0  0  0
   -0.0092   -0.4997    5.8432 C   0  0  0  0  0  0  0  0  0  0  0  0
    5.2866   -1.3291    0.6552 S   0  0  0  0  0  0  0  0  0  0  0  0
    4.9848    0.2838   -2.4841 C   0  0  0  0  0  0  0  0  0  0  0  0
    5.3850    0.2674   -3.6093 O   0  0  0  0  0  0  0  0  0  0  0  0
    7.0063   -0.9571    2.5348 N   0  0  0  0  0  0  0  0  0  0  0  0
    8.1920   -1.0548    3.3658 C   0  0  0  0  0  0  0  0  0  0  0  0
    4.9732    0.6477   -0.1439 C   0  0  0  0  0  0  0  0  0  0  0  0
    5.8090    0.6538   -1.4537 O   0  0  0  0  0  0  0  0  0  0  0  0
    8.2883   -2.3794    4.1032 C   0  0  0  0  0  0  0  0  0  0  0  0
    6.9277   -1.4716    1.2840 C   0  0  0  0  0  0  0  0  0  0  0  0
    7.8481   -2.0129    0.7187 O   0  0  0  0  0  0  0  0  0  0  0  0
  1  2  1  0
  1  4  2  0
  2  3  1  0
  2  7  2  0
  3  6  1  0
  3  9  1  0
  4  5  1  0
  5  6  2  0
  5 10  1  0
  6 14  1  0
  7  8  1  0
  8  9  2  0
  8 12  1  0
 10 11  2  3
 10 25  1  0
 11 21  1  0
 12 13  1  0
 12 18  1  0
 12 19  1  0
 14 15  2  3
 15 16  1  0
 15 20  1  0
 16 17  2  0
 16 23  1  0
 20 28  1  0
 21 22  2  0
 21 26  1  0
 23 24  1  0
 23 28  1  0
 24 27  1  0
 28 29  2  0
M  END

$$$$

     RDKit          3D

 19 21  0  0  0  0  0  0  0  0999 V2000
    0.0000    0.0000    0.0000 C   0  0  0  0  0  0  0  0  0  0  0  0
    0.0000    0.0000    1.3941 C   0  0  0  0  0  0  0  0  0  0  0  0
    1.0925    0.0000    2.1688 N   0  0  0  0  0  0  0  0  0  0  0  0
    1.2231    0.0601   -0.5613 C   0  0  0  0  0  0  0  0  0  0  0  0
    2.4070    0.1182    0.2026 N   0  0  0  0  0  0  0  0  0  0  0  0
    2.2874    0.0570    1.4972 C   0  0  0  0  0  0  0  0  0  0  0  0
    3.4593    0.1664    2.1990 N   0  0  0  0  0  0  0  0  0  0  0  0
    1.5230    0.0156   -2.0234 C   0  0  0  0  0  0  0  0  0  0  0  0
   -1.2371    0.0608    1.9618 N   0  0  0  0  0  0  0  0  0  0  0  0
   -1.4365    0.0000   -0.4380 C   0  0  0  0  0  0  0  0  0  0  0  0
    3.5771   -0.4944    3.4762 C   0  0  0  0  0  0  0  0  0  0  0  0
   -2.2548    0.1780    0.8714 C   0  0  0  0  0  0  0  0  0  0  0  0
    3.9043   -1.9932    3.2892 C   0  0  0  0  0  0  0  0  0  0  0  0
    4.8048   -2.1985    2.1159 N   0  0  0  0  0  0  0  0  0  0  0  0
    4.1018   -2.7779    0.9543 C   0  0  0  0  0  0  0  0  0  0  0  0
    5.5807   -0.9776    1.8214 C   0  0  0  0  0  0  0  0  0  0  0  0
    5.0099   -2.7562   -0.2742 C   0  0  0  0  0  0  0  0  0  0  0  0
    4.7083    0.2139    1.5039 C   0  0  0  0  0  0  0  0  0  0  0  0
    4.9506    0.9768    0.6082 O   0  0  0  0  0  0  0  0  0  0  0  0
  1  2  1  0
  1  4  2  0
  1 10  1  0
  2  3  2  0
  2  9  1  0
  3  6  1  0
  4  5  1  0
  4  8  1  0
  5  6  2  0
  6  7  1  0
  7 11  1  0
  7 18  1  0
  9 12  1  0
 10 12  1  0
 11 13  1  0
 13 14  1  0
 14 15  1  0
 14 16  1  0
 15 17  1  0
 16 18  1  0
 18 19  2  0
M  END

$$$$

     RDKit          3D

 30 32  0  0  0  0  0  0  0  0999 V2000
    0.0000    0.0000    0.0000 N   0  0  0  0  0  0  0  0  0  0  0  0
    0.0000    0.0000    1.3015 C   0  0  0  0  0  0  0  0  0  0  0  0
    1.1179    0.0000    2.0942 N   0  0  0  0  0  0  0  0  0  0  0  0
    1.1768    0.0000   -0.6069 C   0  0  0  0  0  0  0  0  0  0  0  0
    2.3896    0.0596    0.0942 C   0  0  0  0  0  0  0  0  0  0  0  0
    2.3223    0.1769    1.4500 C   0  0  0  0  0  0  0  0  0  0  0  0
    1.2304   -0.0536   -2.0897 C   0  0  0  0  0  0  0  0  0  0  0  0
   -1.1453    0.0000    2.0396 N   0  0  0  0  0  0  0  0  0  0  0  0
   -2.3810   -0.1217    1.5373 N   0  0  0  0  0  0  0  0  0  0  0  0
   -2.7137   -0.8262    0.5318 C   0  0  0  0  0  0  0  0  0  0  0  0
   -1.8937   -1.7254   -0.2890 C   0  0  0  0  0  0  0  0  0  0  0  0
   -1.0034   -2.6678    0.2236 C   0  0  0  0  0  0  0  0  0  0  0  0
   -2.0829   -1.7879   -1.6769 C   0  0  0  0  0  0  0  0  0  0  0  0
   -0.2086   -3.4664   -0.5974 C   0  0  0  0  0  0  0  0  0  0  0  0
   -1.3001   -2.5842   -2.4982 C   0  0  0  0  0  0  0  0  0  0  0  0
   -0.2818   -3.3436   -1.9922 C   0  0  0  0  0  0  0  0  0  0  0  0
    0.6980   -4.3550   -0.0408 N   0  0  0  0  0  0  0  0  0  0  0  0
    1.6171   -5.1964   -0.6110 C   0  0  0  0  0  0  0  0  0  0  0  0
    1.7529   -5.2616   -1.8238 O   0  0  0  0  0  0  0  0  0  0  0  0
   -3.2355   -0.7489   -2.4259 Cl  0  0  0  0  0  0  0  0  0  0  0  0
    2.3533   -6.0248    0.3515 C   0  0  0  0  0  0  0  0  0  0  0  0
    3.2531   -6.9428   -0.0244 C   0  0  0  0  0  0  0  0  0  0  0  0
    0.5010   -4.0593   -2.8226 F   0  0  0  0  0  0  0  0  0  0  0  0
    4.0374   -7.8939    0.7568 C   0  0  0  0  0  0  0  0  0  0  0  0
    5.3647   -8.2021    0.5497 C   0  0  0  0  0  0  0  0  0  0  0  0
    3.4195   -8.5248    1.8769 C   0  0  0  0  0  0  0  0  0  0  0  0
    6.1759   -9.0728    1.3064 C   0  0  0  0  0  0  0  0  0  0  0  0
    4.1609   -9.3208    2.5642 N   0  0  0  0  0  0  0  0  0  0  0  0
    7.5371   -9.3780    1.1660 C   0  0  0  0  0  0  0  0  0  0  0  0
    5.4112   -9.6284    2.3746 C   0  0  0  0  0  0  0  0  0  0  0  0
  1  2  2  0
  1  4  1  0
  2  3  1  0
  2  8  1  0
  3  6  2  0
  4  5  2  0
  4  7  1  0
  5  6  1  0
  8  9  1  0
  9 10  2  3
 10 11  1  0
 11 12  2  0
 11 13  1  0
 12 14  1  0
 13 15  2  0
 13 20  1  0
 14 16  2  0
 14 17  1  0
 15 16  1  0
 16 23  1  0
 17 18  1  0
 18 19  2  0
 18 21  1  0
 21 22  2  3
 22 24  1  0
 24 25  2  0
 24 26  1  0
 25 27  1  0
 26 28  2  0
 27 29  1  0
 27 30  2  0
 28 30  1  0
M  END

$$$$

     RDKit          3D

 31 34  0  0  0  0  0  0  0  0999 V2000
    0.0000    0.0000    0.0000 C   0  0  0  0  0  0  0  0  0  0  0  0
    0.0000    0.0000    1.3704 C   0  0  0  0  0  0  0  0  0  0  0  0
    1.2653    0.0000    2.0111 C   0  0  0  0  0  0  0  0  0  0  0  0
    1.0928   -0.0537   -0.7858 N   0  0  0  0  0  0  0  0  0  0  0  0
    2.2368    0.0025   -0.0477 C   0  0  0  0  0  0  0  0  0  0  0  0
    2.4351   -0.0189    1.3001 N   0  0  0  0  0  0  0  0  0  0  0  0
    3.4189    0.1132   -0.6339 N   0  0  0  0  0  0  0  0  0  0  0  0
    3.6694    0.1026    1.7850 N   0  0  0  0  0  0  0  0  0  0  0  0
    4.1762    0.1789    0.5063 C   0  0  0  0  0  0  0  0  0  0  0  0
   -1.3088   -0.1941    2.1343 C   0  0  0  0  0  0  0  0  0  0  0  0
   -1.2386   -1.6251    2.7139 C   0  0  0  0  0  0  0  0  0  0  0  0
    5.5911    0.3661    0.3612 C   0  0  0  0  0  0  0  0  0  0  0  0
    6.3854    0.3885    1.4585 C   0  0  0  0  0  0  0  0  0  0  0  0
    6.1811    0.5360   -0.8640 O   0  0  0  0  0  0  0  0  0  0  0  0
    7.6062    0.6462    0.7671 C   0  0  0  0  0  0  0  0  0  0  0  0
    7.5045    0.7383   -0.6565 C   0  0  0  0  0  0  0  0  0  0  0  0
    8.8563    0.7356    1.3404 C   0  0  0  0  0  0  0  0  0  0  0  0
    8.5439    0.9061   -1.5458 C   0  0  0  0  0  0  0  0  0  0  0  0
    9.7717    1.0492    0.3480 C   0  0  0  0  0  0  0  0  0  0  0  0
    9.8367    1.0458   -1.0656 C   0  0  0  0  0  0  0  0  0  0  0  0
    1.4090   -0.1437    3.3272 N   0  0  0  0  0  0  0  0  0  0  0  0
   11.0181    1.1959    0.8785 O   0  0  0  0  0  0  0  0  0  0  0  0
    2.5756    0.0757    4.1328 C   0  0  0  0  0  0  0  0  0  0  0  0
    2.5708    1.5202    4.6821 C   0  0  0  0  0  0  0  0  0  0  0  0
   10.8887    1.2624   -1.9041 O   0  0  0  0  0  0  0  0  0  0  0  0
   -2.6408   -0.0630    1.3616 C   0  0  0  0  0  0  0  0  0  0  0  0
    2.5559    2.4425    3.6154 O   0  0  0  0  0  0  0  0  0  0  0  0
    3.8101    2.6625    3.0477 C   0  0  0  0  0  0  0  0  0  0  0  0
    4.8319    2.2686    3.5581 O   0  0  0  0  0  0  0  0  0  0  0  0
   -3.0005   -1.4487    0.7796 C   0  0  0  0  0  0  0  0  0  0  0  0
   -1.8427   -2.3149    1.3254 C   0  0  0  0  0  0  0  0  0  0  0  0
  1  2  1  0
  1  4  2  0
  2  3  2  0
  2 10  1  0
  3  6  1  0
  3 21  1  0
  4  5  1  0
  5  6  1  0
  5  7  2  0
  6  8  1  0
  7  9  1  0
  8  9  2  0
  9 12  1  0
 10 11  1  0
 10 26  1  0
 12 13  2  0
 12 14  1  0
 13 15  1  0
 14 16  1  0
 15 16  2  0
 15 17  1  0
 16 18  1  0
 17 19  2  0
 18 20  2  0
 19 20  1  0
 19 22  1  0
 20 25  1  0
 21 23  1  0
 23 24  1  0
 24 27  1  0
 26 30  1  0
 27 28  1  0
 28 29  2  0
 30 31  1  0
M  END

$$$$

     RDKit          3D

 24 26  0  0  0  0  0  0  0  0999 V2000
    0.0000    0.0000    0.0000 N   0  0  0  0  0  0  0  0  0  0  0  0
    0.0000    0.0000    1.3393 C   0  0  0  0  0  0  0  0  0  0  0  0
    1.2723    0.0000    2.0372 C   0  0  0  0  0  0  0  0  0  0  0  0
    1.0816    0.0000   -0.6970 C   0  0  0  0  0  0  0  0  0  0  0  0
    2.3136    0.0000   -0.0617 N   0  0  0  0  0  0  0  0  0  0  0  0
    2.3767    0.0556    1.2447 C   0  0  0  0  0  0  0  0  0  0  0  0
    1.4113    0.0576    3.5058 C   0  0  0  0  0  0  0  0  0  0  0  0
    0.4761    0.1104    4.2688 O   0  0  0  0  0  0  0  0  0  0  0  0
    1.0290    0.0526   -2.1545 C   0  0  0  0  0  0  0  0  0  0  0  0
    2.1593    0.3340   -2.9350 C   0  0  0  0  0  0  0  0  0  0  0  0
   -0.1921   -0.1412   -2.8494 C   0  0  0  0  0  0  0  0  0  0  0  0
    2.1687    0.3457   -4.3053 C   0  0  0  0  0  0  0  0  0  0  0  0
   -0.1838   -0.1312   -4.2515 C   0  0  0  0  0  0  0  0  0  0  0  0
    0.9751    0.0590   -4.9828 C   0  0  0  0  0  0  0  0  0  0  0  0
   -1.3850   -0.3240   -2.2509 N   0  0  0  0  0  0  0  0  0  0  0  0
    3.7366    0.8067   -5.3152 Br  0  0  0  0  0  0  0  0  0  0  0  0
    2.6881   -0.0080    3.9050 O   0  0  0  0  0  0  0  0  0  0  0  0
   -1.3452    0.0000    1.8835 C   0  0  0  0  0  0  0  0  0  0  0  0
   -2.4626   -0.3998    1.1983 C   0  0  0  0  0  0  0  0  0  0  0  0
   -1.7896    0.6346    3.4337 S   0  0  0  0  0  0  0  0  0  0  0  0
   -3.6448   -0.2489    1.9370 C   0  0  0  0  0  0  0  0  0  0  0  0
   -3.4052    0.3379    2.9827 C   0  0  0  0  0  0  0  0  0  0  0  0
    2.9588    0.0935    5.3018 C   0  0  0  0  0  0  0  0  0  0  0  0
    2.9595    1.5450    5.7503 C   0  0  0  0  0  0  0  0  0  0  0  0
  1  2  2  0
  1  4  1  0
  2  3  1  0
  2 18  1  0
  3  6  2  0
  3  7  1  0
  4  5  2  0
  4  9  1  0
  5  6  1  0
  7  8  2  0
  7 17  1  0
  9 10  2  0
  9 11  1  0
 10 12  1  0
 11 13  2  0
 11 15  1  0
 12 14  2  0
 12 16  1  0
 13 14  1  0
 17 23  1  0
 18 19  2  0
 18 20  1  0
 19 21  1  0
 20 22  1  0
 21 22  3  0
 23 24  1  0
M  END

$$$$

     RDKit          3D

 19 20  0  0  0  0  0  0  0  0999 V2000
    0.0000    0.0000    0.0000 C   0  0  0  0  0  0  0  0  0  0  0  0
    0.0000    0.0000    1.3317 N   0  0  0  0  0  0  0  0  0  0  0  0
    1.2953    0.0000    1.9093 C   0  0  0  0  0  0  0  0  0  0  0  0
    1.1181    0.0549   -0.8040 C   0  0  0  0  0  0  0  0  0  0  0  0
    2.3676    0.0549   -0.0826 C   0  0  0  0  0  0  0  0  0  0  0  0
    2.4346   -0.1007    1.2154 N   0  0  0  0  0  0  0  0  0  0  0  0
    1.4735   -0.0477    3.1033 O   0  0  0  0  0  0  0  0  0  0  0  0
    0.8732   -0.1267   -2.2745 C   0  0  0  0  0  0  0  0  0  0  0  0
   -0.2033   -0.5013   -2.6753 O   0  0  0  0  0  0  0  0  0  0  0  0
    1.9227    0.1219   -3.0029 O   0  0  0  0  0  0  0  0  0  0  0  0
    3.5478    0.1603   -0.7710 N   0  0  0  0  0  0  0  0  0  0  0  0
    3.8238    1.2113   -1.7329 C   0  0  0  0  0  0  0  0  0  0  0  0
    4.7295   -0.2758   -0.0675 C   0  0  0  0  0  0  0  0  0  0  0  0
   -1.1209   -0.1104    2.2335 C   0  0  0  0  0  0  0  0  0  0  0  0
   -1.9545   -1.3581    2.2960 C   0  0  0  0  0  0  0  0  0  0  0  0
    4.3853    2.4199   -0.9678 C   0  0  0  0  0  0  0  0  0  0  0  0
    5.5333    2.0796   -0.2077 O   0  0  0  0  0  0  0  0  0  0  0  0
   -1.0156   -1.0443    3.4026 C   0  0  0  0  0  0  0  0  0  0  0  0
    5.2755    1.0856    0.7352 C   0  0  0  0  0  0  0  0  0  0  0  0
  1  2  1  0
  1  4  2  0
  2  3  1  0
  2 14  1  0
  3  6  1  0
  3  7  2  0
  4  5  1  0
  4  8  1  0
  5  6  2  0
  5 11  1  0
  8  9  2  0
  8 10  1  0
 11 12  1  0
 11 13  1  0
 12 16  1  0
 14 15  1  0
 14 18  1  0
 15 18  1  0
 16 17  1  0
 17 19  1  0
M  END

$$$$

     RDKit          3D

 31 34  0  0  0  0  0  0  0  0999 V2000
    0.0000    0.0000    0.0000 N   0  0  0  0  0  0  0  0  0  0  0  0
    0.0000    0.0000    1.3165 C   0  0  0  0  0  0  0  0  0  0  0  0
    1.1238    0.0000    2.0591 C   0  0  0  0  0  0  0  0  0  0  0  0
    1.2110    0.0000   -0.6245 C   0  0  0  0  0  0  0  0  0  0  0  0
    2.3695    0.0000    0.1220 N   0  0  0  0  0  0  0  0  0  0  0  0
    2.3089   -0.0537    1.3843 C   0  0  0  0  0  0  0  0  0  0  0  0
    3.5472   -0.1016    2.0230 N   0  0  0  0  0  0  0  0  0  0  0  0
    3.6108   -0.1084    3.3763 N   0  0  0  0  0  0  0  0  0  0  0  0
    4.8382   -0.1622    1.5004 C   0  0  0  0  0  0  0  0  0  0  0  0
    4.8373   -0.1049    3.6545 N   0  0  0  0  0  0  0  0  0  0  0  0
    5.7029   -0.1322    2.6757 C   0  0  0  0  0  0  0  0  0  0  0  0
    5.1497   -0.1861    0.3546 O   0  0  0  0  0  0  0  0  0  0  0  0
    1.0599   -0.0640    3.8300 S   0  0  0  0  0  0  0  0  0  0  0  0
    7.0648   -0.1188    2.6356 C   0  0  0  0  0  0  0  0  0  0  0  0
    8.0308   -0.1459    3.7181 C   0  0  0  0  0  0  0  0  0  0  0  0
    7.8216   -0.1329    1.4072 C   0  0  0  0  0  0  0  0  0  0  0  0
    9.1910   -0.1664    3.0961 N   0  0  0  0  0  0  0  0  0  0  0  0
    9.0663   -0.1648    1.7599 N   0  0  0  0  0  0  0  0  0  0  0  0
    7.2351   -0.1630    0.0712 C   0  0  0  0  0  0  0  0  0  0  0  0
    7.0127   -1.3657   -0.5978 C   0  0  0  0  0  0  0  0  0  0  0  0
    6.8990    1.0040   -0.6297 C   0  0  0  0  0  0  0  0  0  0  0  0
    6.4032   -1.4483   -1.8667 C   0  0  0  0  0  0  0  0  0  0  0  0
    6.2949    0.9240   -1.8835 C   0  0  0  0  0  0  0  0  0  0  0  0
    6.0441   -0.2251   -2.3907 C   0  0  0  0  0  0  0  0  0  0  0  0
    7.1959    2.6802    0.1370 Br  0  0  0  0  0  0  0  0  0  0  0  0
    5.4058   -0.1813   -3.5761 O   0  0  0  0  0  0  0  0  0  0  0  0
    0.1165    1.4500    4.1607 C   0  0  0  0  0  0  0  0  0  0  0  0
    5.1038   -1.2913   -4.4058 C   0  0  0  0  0  0  0  0  0  0  0  0
    5.8415    1.8570   -2.7064 O   0  0  0  0  0  0  0  0  0  0  0  0
    7.4294   -2.5864    0.0303 N   0  0  0  0  0  0  0  0  0  0  0  0
    7.7801   -2.5337    1.2145 O   0  0  0  0  0  0  0  0  0  0  0  0
  1  2  2  0
  1  4  1  0
  2  3  1  0
  3  6  2  0
  3 13  1  0
  4  5  2  0
  5  6  1  0
  6  7  1  0
  7  8  1  0
  7  9  1  0
  8 10  2  0
  9 11  1  0
  9 12  2  0
 10 11  1  0
 11 14  2  3
 13 27  1  0
 14 15  1  0
 14 16  1  0
 15 17  2  0
 16 18  2  0
 16 19  1  0
 17 18  1  0
 19 20  2  0
 19 21  1  0
 20 22  1  0
 20 30  1  0
 21 23  2  0
 21 25  1  0
 22 24  2  0
 23 24  1  0
 23 29  1  0
 24 26  1  0
 26 28  1  0
 30 31  2  0
M  END

$$$$

     RDKit          3D

 31 33  0  0  0  0  0  0  0  0999 V2000
    0.0000    0.0000    0.0000 C   0  0  0  0  0  0  0  0  0  0  0  0
    0.0000    0.0000    1.3941 N   0  0  0  0  0  0  0  0  0  0  0  0
    1.1866    0.0000    1.9468 C   0  0  0  0  0  0  0  0  0  0  0  0
    1.2001    0.1182   -0.7771 C   0  0  0  0  0  0  0  0  0  0  0  0
    2.3141    0.0085   -0.0557 C   0  0  0  0  0  0  0  0  0  0  0  0
    2.3121    0.0278    1.3462 N   0  0  0  0  0  0  0  0  0  0  0  0
    3.5404    0.0530    1.9535 C   0  0  0  0  0  0  0  0  0  0  0  0
    3.8383    0.1207    3.1153 O   0  0  0  0  0  0  0  0  0  0  0  0
    3.6245    0.0109   -0.4292 N   0  0  0  0  0  0  0  0  0  0  0  0
    4.4957   -0.1248    0.7518 C   0  0  0  0  0  0  0  0  0  0  0  0
    4.3013   -0.2911   -1.6289 C   0  0  0  0  0  0  0  0  0  0  0  0
    3.5326   -1.1166   -2.4347 C   0  0  0  0  0  0  0  0  0  0  0  0
    5.4982    0.2565   -2.0885 C   0  0  0  0  0  0  0  0  0  0  0  0
    4.1413   -1.4023   -3.6559 C   0  0  0  0  0  0  0  0  0  0  0  0
    6.0911   -0.0319   -3.2808 C   0  0  0  0  0  0  0  0  0  0  0  0
    5.4520   -0.9856   -4.0921 C   0  0  0  0  0  0  0  0  0  0  0  0
   -1.1736   -0.1156   -0.4770 N   0  0  0  0  0  0  0  0  0  0  0  0
    6.1726   -1.2428   -5.2290 N   0  0  0  0  0  0  0  0  0  0  0  0
    3.2959   -2.1080   -4.4584 N   0  0  0  0  0  0  0  0  0  0  0  0
    3.2586   -1.7294   -5.8502 C   0  0  0  0  0  0  0  0  0  0  0  0
    5.2532   -1.4570    0.8646 C   0  0  0  0  0  0  0  0  0  0  0  0
    2.0594   -0.7813   -6.0766 C   0  0  0  0  0  0  0  0  0  0  0  0
    2.1187    0.3281   -5.2344 O   0  0  0  0  0  0  0  0  0  0  0  0
    5.9377   -2.4749   -5.9254 C   0  0  0  0  0  0  0  0  0  0  0  0
    6.3332   -3.7448   -5.1559 C   0  0  0  0  0  0  0  0  0  0  0  0
    6.3205   -1.3073    1.9352 C   0  0  0  0  0  0  0  0  0  0  0  0
    2.3092   -3.0981   -4.1009 C   0  0  0  0  0  0  0  0  0  0  0  0
    6.6020   -0.2490   -6.2077 C   0  0  0  0  0  0  0  0  0  0  0  0
    5.5592   -0.1611   -7.3569 C   0  0  0  0  0  0  0  0  0  0  0  0
    7.8234   -3.7185   -4.7818 C   0  0  0  0  0  0  0  0  0  0  0  0
    0.8998   -2.5185   -3.9906 C   0  0  0  0  0  0  0  0  0  0  0  0
  1  2  1  0
  1  4  1  0
  1 17  2  0
  2  3  2  0
  3  6  1  0
  4  5  2  0
  5  6  1  0
  5  9  1  0
  6  7  1  0
  7  8  2  0
  7 10  1  0
  9 10  1  0
  9 11  1  0
 10 21  1  0
 11 12  2  0
 11 13  1  0
 12 14  1  0
 13 15  2  0
 14 16  2  0
 14 19  1  0
 15 16  1  0
 16 18  1  0
 18 24  1  0
 18 28  1  0
 19 20  1  0
 19 27  1  0
 20 22  1  0
 21 26  1  0
 22 23  1  0
 24 25  1  0
 25 30  1  0
 27 31  1  0
 28 29  1  0
M  END

$$$$
