
     RDKit          3D

 32 34  0  0  0  0  0  0  0  0999 V2000
    0.0000   -0.0000   -0.0000 C   0  0  0  0  0  0  0  0  0  0  0  0
   -0.0000   -0.0000    1.3317 N   0  0  0  0  0  0  0  0  0  0  0  0
    1.1543    0.0000    1.9648 C   0  0  0  0  0  0  0  0  0  0  0  0
    1.1719    0.0000   -0.7551 C   0  0  0  0  0  0  0  0  0  0  0  0
    2.4039   -0.0000   -0.1198 C   0  0  0  0  0  0  0  0  0  0  0  0
    2.4039    0.0000    1.2663 C   0  0  0  0  0  0  0  0  0  0  0  0
   -1.2586   -0.0618   -0.5776 N   0  0  0  0  0  0  0  0  0  0  0  0
   -1.6014   -0.0247   -1.8958 C   0  0  0  0  0  0  0  0  0  0  0  0
   -0.8485    0.1294   -2.8280 O   0  0  0  0  0  0  0  0  0  0  0  0
   -2.9505   -0.1631   -2.1411 N   0  0  0  0  0  0  0  0  0  0  0  0
   -3.8400   -0.3194   -1.1728 N   0  0  0  0  0  0  0  0  0  0  0  0
   -5.0777   -0.4901   -1.4483 C   0  0  0  0  0  0  0  0  0  0  0  0
   -5.9315   -0.5900   -0.3303 C   0  0  0  0  0  0  0  0  0  0  0  0
   -7.3112   -0.7209   -0.3537 C   0  0  0  0  0  0  0  0  0  0  0  0
   -5.3367   -0.4877    1.2942 S   0  0  0  0  0  0  0  0  0  0  0  0
   -7.7904   -0.7331    0.9554 C   0  0  0  0  0  0  0  0  0  0  0  0
   -6.9180   -0.6245    1.9649 C   0  0  0  0  0  0  0  0  0  0  0  0
   -7.2397   -0.5595    3.4129 C   0  0  0  0  0  0  0  0  0  0  0  0
   -6.5751    0.5643    3.9874 O   0  0  0  0  0  0  0  0  0  0  0  0
   -6.9306    1.8349    3.6172 C   0  0  0  0  0  0  0  0  0  0  0  0
   -8.1324    2.1934    3.0082 C   0  0  0  0  0  0  0  0  0  0  0  0
   -6.0399    2.8491    3.9325 C   0  0  0  0  0  0  0  0  0  0  0  0
   -8.3538    3.5090    2.6319 C   0  0  0  0  0  0  0  0  0  0  0  0
   -6.2593    4.1517    3.5676 C   0  0  0  0  0  0  0  0  0  0  0  0
   -7.4251    4.5073    2.8330 C   0  0  0  0  0  0  0  0  0  0  0  0
   -7.7332    6.1224    2.2853 Cl  0  0  0  0  0  0  0  0  0  0  0  0
   -5.2371    5.2046    3.8870 C   0  0  0  0  0  0  0  0  0  0  0  0
   -4.2645    5.3768    2.7213 C   0  0  0  0  0  0  0  0  0  0  0  0
   -3.1695    6.4002    3.0183 C   0  0  0  0  0  0  0  0  0  0  0  0
   -2.1946    6.4947    1.8457 C   0  0  0  0  0  0  0  0  0  0  0  0
   -1.0408    7.4726    2.1173 C   0  0  0  0  0  0  0  0  0  0  0  0
   -0.0675    7.4894    0.9396 C   0  0  0  0  0  0  0  0  0  0  0  0
  2  1  2  0
  3  2  1  0
  4  1  1  0
  5  4  2  0
  6  5  1  0
  6  3  2  0
  7  1  1  0
  8  7  1  0
  9  8  2  0
 10  8  1  0
 11 10  1  0
 12 11  2  0
 13 12  1  0
 14 13  2  0
 15 13  1  0
 16 14  1  0
 17 16  2  0
 17 15  1  0
 18 17  1  0
 19 18  1  0
 20 19  1  0
 21 20  2  0
 22 20  1  0
 23 21  1  0
 24 22  2  0
 25 24  1  0
 25 23  2  0
 26 25  1  0
 27 24  1  0
 28 27  1  0
 29 28  1  0
 30 29  1  0
 31 30  1  0
 32 31  1  0
M  END
>  <SMILES>  (1) 
CCCCCCc1cc(OCc2ccc(C=NNC(=O)Nc3ccccn3)s2)ccc1Cl

>  <scaffold>  (1) 
pyridine

$$$$

     RDKit          3D

 26 28  0  0  0  0  0  0  0  0999 V2000
    0.0000    0.0000    0.0000 C   0  0  0  0  0  0  0  0  0  0  0  0
   -0.0000   -0.0000    1.3782 C   0  0  0  0  0  0  0  0  0  0  0  0
    1.2223   -0.0000    2.0487 C   0  0  0  0  0  0  0  0  0  0  0  0
    1.2462   -0.0000   -0.6426 C   0  0  0  0  0  0  0  0  0  0  0  0
    2.4163    0.0000   -0.0392 N   0  0  0  0  0  0  0  0  0  0  0  0
    2.4163    0.0000    1.2925 C   0  0  0  0  0  0  0  0  0  0  0  0
    3.6553   -0.0494    1.8758 N   0  0  0  0  0  0  0  0  0  0  0  0
    3.6993   -0.0971    3.1462 C   0  0  0  0  0  0  0  0  0  0  0  0
    2.6304   -0.1031    3.9658 N   0  0  0  0  0  0  0  0  0  0  0  0
    1.3470    0.0078    3.4328 C   0  0  0  0  0  0  0  0  0  0  0  0
    0.4596    0.0388    4.2624 O   0  0  0  0  0  0  0  0  0  0  0  0
    2.7346   -0.1062    5.4216 C   0  0  0  0  0  0  0  0  0  0  0  0
    3.2098    1.2176    5.9481 C   0  0  0  0  0  0  0  0  0  0  0  0
    2.5242    2.3855    5.6522 C   0  0  0  0  0  0  0  0  0  0  0  0
    4.3887    1.3556    6.6793 C   0  0  0  0  0  0  0  0  0  0  0  0
    2.9425    3.6065    6.0643 C   0  0  0  0  0  0  0  0  0  0  0  0
    4.8120    2.6059    7.1022 C   0  0  0  0  0  0  0  0  0  0  0  0
    4.1085    3.7238    6.8194 C   0  0  0  0  0  0  0  0  0  0  0  0
    4.4562    5.0121    7.1310 O   0  0  0  0  0  0  0  0  0  0  0  0
    5.5305    5.2735    8.0193 C   0  0  0  0  0  0  0  0  0  0  0  0
    5.1302    5.0298    9.4736 C   0  0  0  0  0  0  0  0  0  0  0  0
    3.9603    5.9059    9.9190 C   0  0  0  0  0  0  0  0  0  0  0  0
    3.4854    5.6614   11.3504 C   0  0  0  0  0  0  0  0  0  0  0  0
    2.3520    6.5987   11.7641 C   0  0  0  0  0  0  0  0  0  0  0  0
    1.8774    6.4315   13.2067 C   0  0  0  0  0  0  0  0  0  0  0  0
    0.7824    7.3827   13.6868 C   0  0  0  0  0  0  0  0  0  0  0  0
  2  1  2  0
  3  2  1  0
  4  1  1  0
  5  4  2  0
  6  5  1  0
  6  3  2  0
  7  6  1  0
  8  7  2  0
  9  8  1  0
 10  9  1  0
 10  3  1  0
 11 10  2  0
 12  9  1  0
 13 12  1  0
 14 13  2  0
 15 13  1  0
 16 14  1  0
 17 15  2  0
 18 17  1  0
 18 16  2  0
 19 18  1  0
 20 19  1  0
 21 20  1  0
 22 21  1  0
 23 22  1  0
 24 23  1  0
 25 24  1  0
 26 25  1  0
M  END
>  <SMILES>  (2) 
CCCCCCCOc1ccc(Cn2cnc3ncccc3c2=O)cc1

>  <scaffold>  (2) 
pyridine

$$$$

     RDKit          3D

 25 26  0  0  0  0  0  0  0  0999 V2000
   -0.0000   -0.0000    0.0000 C   0  0  0  0  0  0  0  0  0  0  0  0
   -0.0000    0.0000    1.3470 N   0  0  0  0  0  0  0  0  0  0  0  0
    1.1698    0.0000    2.1200 C   0  0  0  0  0  0  0  0  0  0  0  0
    1.1519   -0.0000   -0.7423 C   0  0  0  0  0  0  0  0  0  0  0  0
    2.3857   -0.0606   -0.0291 C   0  0  0  0  0  0  0  0  0  0  0  0
    2.4519   -0.0591    1.3241 C   0  0  0  0  0  0  0  0  0  0  0  0
    1.1260   -0.0438    3.3335 O   0  0  0  0  0  0  0  0  0  0  0  0
    1.2802    0.0531   -2.0977 O   0  0  0  0  0  0  0  0  0  0  0  0
   -1.2552   -0.0617    2.0726 C   0  0  0  0  0  0  0  0  0  0  0  0
   -1.8279   -1.4444    2.1977 C   0  0  0  0  0  0  0  0  0  0  0  0
   -1.1358   -2.5736    1.9521 C   0  0  0  0  0  0  0  0  0  0  0  0
   -3.1492   -1.7211    2.6327 C   0  0  0  0  0  0  0  0  0  0  0  0
   -2.0612   -3.9956    2.2530 S   0  0  0  0  0  0  0  0  0  0  0  0
   -3.4694   -3.0337    2.7322 C   0  0  0  0  0  0  0  0  0  0  0  0
   -4.6875   -3.7469    3.1927 C   0  0  0  0  0  0  0  0  0  0  0  0
    0.1088    0.1781   -2.8432 C   0  0  0  0  0  0  0  0  0  0  0  0
   -0.9322    0.4317   -2.2702 O   0  0  0  0  0  0  0  0  0  0  0  0
    0.3620   -0.0061   -4.1298 N   0  0  0  0  0  0  0  0  0  0  0  0
   -0.7231    0.1398   -5.0821 C   0  0  2  0  0  0  0  0  0  0  0  0
   -1.0925   -1.2449   -5.6118 C   0  0  0  0  0  0  0  0  0  0  0  0
   -0.2299    1.0272   -6.2238 C   0  0  0  0  0  0  0  0  0  0  0  0
    0.0893    2.4560   -5.7867 C   0  0  0  0  0  0  0  0  0  0  0  0
    0.6289    3.2851   -6.9511 C   0  0  0  0  0  0  0  0  0  0  0  0
    1.0154    4.7086   -6.5529 C   0  0  0  0  0  0  0  0  0  0  0  0
    1.5987    5.4765   -7.7381 C   0  0  0  0  0  0  0  0  0  0  0  0
  2  1  1  0
  3  2  1  0
  4  1  2  0
  5  4  1  0
  6  5  2  0
  6  3  1  0
  7  3  2  0
  8  4  1  0
  9  2  1  0
 10  9  1  0
 11 10  2  0
 12 10  1  0
 13 11  1  0
 14 13  1  0
 14 12  2  0
 15 14  1  0
 16  8  1  0
 17 16  2  0
 18 16  1  0
 19 18  1  0
 19 20  1  6
 21 19  1  0
 22 21  1  0
 23 22  1  0
 24 23  1  0
 25 24  1  0
M  END
>  <SMILES>  (3) 
CCCCCC(C)NC(=O)Oc1ccc(=O)n(Cc2csc(C)c2)c1

>  <scaffold>  (3) 
pyridine

$$$$

     RDKit          3D

 20 21  0  0  0  0  0  0  0  0999 V2000
   -0.0000   -0.0000   -0.0000 C   0  0  0  0  0  0  0  0  0  0  0  0
   -0.0000   -0.0000    1.3317 N   0  0  0  0  0  0  0  0  0  0  0  0
    1.1543    0.0000    1.9648 C   0  0  0  0  0  0  0  0  0  0  0  0
    1.1719    0.0000   -0.7551 C   0  0  0  0  0  0  0  0  0  0  0  0
    2.4039    0.0000   -0.1198 C   0  0  0  0  0  0  0  0  0  0  0  0
    2.4039   -0.0000    1.2663 C   0  0  0  0  0  0  0  0  0  0  0  0
   -1.2924   -0.0000   -0.5228 N   0  0  0  0  0  0  0  0  0  0  0  0
   -1.6310   -0.0536   -1.8335 C   0  0  0  0  0  0  0  0  0  0  0  0
   -0.8671   -0.1109   -2.7767 O   0  0  0  0  0  0  0  0  0  0  0  0
   -3.1090    0.0238   -2.0323 C   0  0  0  0  0  0  0  0  0  0  0  0
   -3.9589    0.5098   -1.1522 N   0  0  0  0  0  0  0  0  0  0  0  0
   -3.5274   -0.3798   -3.3260 C   0  0  0  0  0  0  0  0  0  0  0  0
   -5.2142    0.5990   -1.3827 N   0  0  0  0  0  0  0  0  0  0  0  0
   -4.8643   -0.2793   -3.5691 C   0  0  0  0  0  0  0  0  0  0  0  0
   -5.7214    0.1827   -2.5769 C   0  0  0  0  0  0  0  0  0  0  0  0
   -7.0380    0.2762   -2.6815 O   0  0  0  0  0  0  0  0  0  0  0  0
   -7.8622    0.7768   -1.6193 C   0  0  0  0  0  0  0  0  0  0  0  0
   -7.7624    2.2978   -1.5146 C   0  0  0  0  0  0  0  0  0  0  0  0
   -8.7282    2.8973   -0.4936 C   0  0  0  0  0  0  0  0  0  0  0  0
   -8.6274    4.4216   -0.4669 C   0  0  0  0  0  0  0  0  0  0  0  0
  2  1  2  0
  3  2  1  0
  4  1  1  0
  5  4  2  0
  6  5  1  0
  6  3  2  0
  7  1  1  0
  8  7  1  0
  9  8  2  0
 10  8  1  0
 11 10  2  0
 12 10  1  0
 13 11  1  0
 14 12  2  0
 15 14  1  0
 15 13  2  0
 16 15  1  0
 17 16  1  0
 18 17  1  0
 19 18  1  0
 20 19  1  0
M  END
>  <SMILES>  (4) 
CCCCOc1ccc(C(=O)Nc2ccccn2)nn1

>  <scaffold>  (4) 
pyridine

$$$$

     RDKit          3D

 21 23  0  0  0  0  0  0  0  0999 V2000
   -0.0000    0.0000    0.0000 C   0  0  0  0  0  0  0  0  0  0  0  0
    0.0000   -0.0000    1.3015 N   0  0  0  0  0  0  0  0  0  0  0  0
    1.1811   -0.0000    1.9493 C   0  0  0  0  0  0  0  0  0  0  0  0
    1.1786    0.0000   -0.7595 C   0  0  0  0  0  0  0  0  0  0  0  0
    2.3966    0.0000   -0.1314 C   0  0  0  0  0  0  0  0  0  0  0  0
    2.3966    0.0000    1.2788 C   0  0  0  0  0  0  0  0  0  0  0  0
    3.5825   -0.0550    2.0398 C   0  0  0  0  0  0  0  0  0  0  0  0
    3.5360   -0.0039    3.3928 C   0  0  0  0  0  0  0  0  0  0  0  0
    2.3337    0.1038    4.0902 C   0  0  0  0  0  0  0  0  0  0  0  0
    1.1340    0.1628    3.4142 C   0  0  0  0  0  0  0  0  0  0  0  0
   -0.3399    0.2343    4.3416 Cl  0  0  0  0  0  0  0  0  0  0  0  0
    2.1638    0.2159    5.4296 O   0  0  0  0  0  0  0  0  0  0  0  0
    3.3017    0.0402    6.2438 C   0  0  0  0  0  0  0  0  0  0  0  0
    3.7533   -1.3830    6.2314 C   0  0  0  0  0  0  0  0  0  0  0  0
    3.0618   -2.5347    5.9604 C   0  0  0  0  0  0  0  0  0  0  0  0
    5.0119   -1.6863    6.5092 O   0  0  0  0  0  0  0  0  0  0  0  0
    3.9520   -3.6023    6.1441 C   0  0  0  0  0  0  0  0  0  0  0  0
    5.1513   -3.0337    6.4834 C   0  0  0  0  0  0  0  0  0  0  0  0
    6.4094   -3.7182    6.8044 C   0  0  0  0  0  0  0  0  0  0  0  0
    6.6280   -4.8982    6.8576 O   0  0  0  0  0  0  0  0  0  0  0  0
    7.2852   -2.7344    7.0474 O   0  0  0  0  0  0  0  0  0  0  0  0
  2  1  2  0
  3  2  1  0
  4  1  1  0
  5  4  2  0
  6  5  1  0
  6  3  2  0
  7  6  1  0
  8  7  2  0
  9  8  1  0
 10  9  2  0
 10  3  1  0
 11 10  1  0
 12  9  1  0
 13 12  1  0
 14 13  1  0
 15 14  2  0
 16 14  1  0
 17 15  1  0
 18 17  2  0
 18 16  1  0
 19 18  1  0
 20 19  2  0
 21 19  1  0
M  END
>  <SMILES>  (5) 
O=C(O)c1ccc(COc2ccc3cccnc3c2Cl)o1

>  <scaffold>  (5) 
pyridine

$$$$

     RDKit          3D

 26 28  0  0  0  0  0  0  0  0999 V2000
    0.0000    0.0000    0.0000 C   0  0  0  0  0  0  0  0  0  0  0  0
    0.0000   -0.0000    1.3782 C   0  0  0  0  0  0  0  0  0  0  0  0
    1.2546   -0.0000    2.0397 C   0  0  0  0  0  0  0  0  0  0  0  0
    1.2268    0.0603   -0.7091 C   0  0  0  0  0  0  0  0  0  0  0  0
    2.3822    0.1170   -0.1126 N   0  0  0  0  0  0  0  0  0  0  0  0
    2.4460    0.1202    1.2329 C   0  0  0  0  0  0  0  0  0  0  0  0
    3.7098    0.2329    1.8298 C   0  0  0  0  0  0  0  0  0  0  0  0
    3.9087    0.1942    3.1930 C   0  0  0  0  0  0  0  0  0  0  0  0
    2.7619   -0.0286    3.9973 C   0  0  0  0  0  0  0  0  0  0  0  0
    1.4884   -0.1443    3.4831 C   0  0  0  0  0  0  0  0  0  0  0  0
    5.4970    0.4020    3.8799 Cl  0  0  0  0  0  0  0  0  0  0  0  0
   -1.2697    0.0000   -0.8182 C   0  0  0  0  0  0  0  0  0  0  0  0
    2.9153   -0.1217    5.3245 O   0  0  0  0  0  0  0  0  0  0  0  0
    1.1809    0.0096   -2.0467 O   0  0  0  0  0  0  0  0  0  0  0  0
   -1.6939    1.3985   -1.2638 C   0  0  0  0  0  0  0  0  0  0  0  0
   -1.7348    1.7825   -2.4086 O   0  0  0  0  0  0  0  0  0  0  0  0
   -1.9746    2.1762   -0.2101 N   0  0  0  0  0  0  0  0  0  0  0  0
   -2.4578    3.5373   -0.3502 C   0  0  0  0  0  0  0  0  0  0  0  0
   -1.3563    4.5128    0.0279 C   0  0  0  0  0  0  0  0  0  0  0  0
   -0.6167    4.4028    1.1950 C   0  0  0  0  0  0  0  0  0  0  0  0
   -1.1173    5.6155   -0.7774 C   0  0  0  0  0  0  0  0  0  0  0  0
    0.3510    5.3513    1.5231 C   0  0  0  0  0  0  0  0  0  0  0  0
   -0.1513    6.5640   -0.4446 C   0  0  0  0  0  0  0  0  0  0  0  0
    0.6148    6.4378    0.7038 C   0  0  0  0  0  0  0  0  0  0  0  0
    0.1518    7.6362   -1.2288 O   0  0  0  0  0  0  0  0  0  0  0  0
   -0.6341    7.9657   -2.3625 C   0  0  0  0  0  0  0  0  0  0  0  0
  2  1  2  0
  3  2  1  0
  4  1  1  0
  5  4  2  0
  6  5  1  0
  6  3  2  0
  7  6  1  0
  8  7  2  0
  9  8  1  0
 10  9  2  0
 10  3  1  0
 11  8  1  0
 12  1  1  0
 13  9  1  0
 14  4  1  0
 15 12  1  0
 16 15  2  0
 17 15  1  0
 18 17  1  0
 19 18  1  0
 20 19  2  0
 21 19  1  0
 22 20  1  0
 23 21  2  0
 24 23  1  0
 24 22  2  0
 25 23  1  0
 26 25  1  0
M  END
>  <SMILES>  (6) 
COc1cccc(CNC(=O)Cc2cc3cc(O)c(Cl)cc3nc2O)c1

>  <scaffold>  (6) 
pyridine

$$$$

     RDKit          3D

 18 19  0  0  0  0  0  0  0  0999 V2000
    0.0000    0.0000    0.0000 C   0  0  0  0  0  0  0  0  0  0  0  0
    0.0000    0.0000    1.4021 C   0  0  0  0  0  0  0  0  0  0  0  0
    1.1675    0.0000    2.1196 C   0  0  0  0  0  0  0  0  0  0  0  0
    1.2110    0.0000   -0.6245 C   0  0  0  0  0  0  0  0  0  0  0  0
    2.3762   -0.0572    0.0490 N   0  0  0  0  0  0  0  0  0  0  0  0
    2.3754   -0.1198    1.4417 C   0  0  0  0  0  0  0  0  0  0  0  0
    3.4836   -0.2159    1.9479 O   0  0  0  0  0  0  0  0  0  0  0  0
    3.6292    0.0813   -0.6527 C   0  0  0  0  0  0  0  0  0  0  0  0
    1.2164    0.0489    3.4726 F   0  0  0  0  0  0  0  0  0  0  0  0
    3.8875    1.4900   -1.1049 C   0  0  0  0  0  0  0  0  0  0  0  0
    2.9507    2.3852   -0.9186 N   0  0  0  0  0  0  0  0  0  0  0  0
    5.1112    1.8835   -1.6648 C   0  0  0  0  0  0  0  0  0  0  0  0
    3.1145    3.6139   -1.3392 N   0  0  0  0  0  0  0  0  0  0  0  0
    5.2859    3.1835   -2.1130 C   0  0  0  0  0  0  0  0  0  0  0  0
    4.2082    4.0050   -1.9590 C   0  0  0  0  0  0  0  0  0  0  0  0
    4.3121    5.2603   -2.4141 O   0  0  0  0  0  0  0  0  0  0  0  0
    3.1975    6.1663   -2.2770 C   0  0  0  0  0  0  0  0  0  0  0  0
    2.8330    6.5175   -0.8261 C   0  0  0  0  0  0  0  0  0  0  0  0
  2  1  1  0
  3  2  2  0
  4  1  2  0
  5  4  1  0
  6  5  1  0
  6  3  1  0
  7  6  2  0
  8  5  1  0
  9  3  1  0
 10  8  1  0
 11 10  2  0
 12 10  1  0
 13 11  1  0
 14 12  2  0
 15 14  1  0
 15 13  2  0
 16 15  1  0
 17 16  1  0
 18 17  1  0
M  END
>  <SMILES>  (7) 
CCOc1ccc(Cn2cccc(F)c2=O)nn1

>  <scaffold>  (7) 
pyridine

$$$$

     RDKit          3D

 34 36  0  0  0  0  0  0  0  0999 V2000
   -0.0000    0.0000    0.0000 C   0  0  0  0  0  0  0  0  0  0  0  0
    0.0000    0.0000    1.3862 C   0  0  0  0  0  0  0  0  0  0  0  0
    1.2154    0.0000    2.0527 C   0  0  0  0  0  0  0  0  0  0  0  0
    1.2250    0.0000   -0.6317 C   0  0  0  0  0  0  0  0  0  0  0  0
    2.4153    0.0000   -0.0178 N   0  0  0  0  0  0  0  0  0  0  0  0
    2.4153    0.0000    1.3215 C   0  0  0  0  0  0  0  0  0  0  0  0
    3.6722    0.0520   -0.7245 C   0  0  0  0  0  0  0  0  0  0  0  0
    3.8929    1.3983   -1.4318 C   0  0  0  0  0  0  0  0  0  0  0  0
    2.9921    2.1760   -1.6403 O   0  0  0  0  0  0  0  0  0  0  0  0
    5.1747    1.6167   -1.8119 N   0  0  0  0  0  0  0  0  0  0  0  0
    5.5711    2.7703   -2.4014 N   0  0  0  0  0  0  0  0  0  0  0  0
    6.7941    2.9515   -2.7011 C   0  0  0  0  0  0  0  0  0  0  0  0
    7.2677    4.1682   -3.2757 C   0  0  0  0  0  0  0  0  0  0  0  0
    8.5207    4.5622   -3.6075 C   0  0  0  0  0  0  0  0  0  0  0  0
    6.1706    5.4716   -3.5930 S   0  0  0  0  0  0  0  0  0  0  0  0
    8.6522    5.8867   -4.1204 C   0  0  0  0  0  0  0  0  0  0  0  0
    7.4808    6.4701   -4.1621 C   0  0  0  0  0  0  0  0  0  0  0  0
    9.9397    6.5291   -4.4866 C   0  0  0  0  0  0  0  0  0  0  0  0
    7.2096    7.8398   -4.6914 C   0  0  0  0  0  0  0  0  0  0  0  0
    6.5438    7.8188   -6.0664 C   0  0  0  0  0  0  0  0  0  0  0  0
    6.7245    6.9387   -6.8742 O   0  0  0  0  0  0  0  0  0  0  0  0
    5.7731    8.8850   -6.2732 O   0  0  0  0  0  0  0  0  0  0  0  0
    5.0295    9.0197   -7.4637 C   0  0  0  0  0  0  0  0  0  0  0  0
    5.5773    8.8115   -8.7198 C   0  0  0  0  0  0  0  0  0  0  0  0
    3.7230    9.4559   -7.3081 C   0  0  0  0  0  0  0  0  0  0  0  0
    4.8194    9.0041   -9.8644 C   0  0  0  0  0  0  0  0  0  0  0  0
    2.9729    9.6496   -8.4480 C   0  0  0  0  0  0  0  0  0  0  0  0
    3.5179    9.4655   -9.7437 C   0  0  0  0  0  0  0  0  0  0  0  0
    2.7061    9.6259  -10.8557 N   0  0  0  0  0  0  0  0  0  0  0  0
    2.9274    9.4081  -12.1744 C   0  0  0  0  0  0  0  0  0  0  0  0
    3.9479    8.9489  -12.6113 O   0  0  0  0  0  0  0  0  0  0  0  0
    1.8687    9.7501  -12.9062 O   0  0  0  0  0  0  0  0  0  0  0  0
    1.9968    9.6197  -14.3127 C   0  0  0  0  0  0  0  0  0  0  0  0
    2.3635   10.9807  -14.9023 C   0  0  0  0  0  0  0  0  0  0  0  0
  2  1  1  0
  3  2  1  0
  4  1  2  0
  5  4  1  0
  6  5  1  0
  6  3  2  0
  7  5  1  0
  8  7  1  0
  9  8  2  0
 10  8  1  0
 11 10  1  0
 12 11  2  0
 13 12  1  0
 14 13  2  0
 15 13  1  0
 16 14  1  0
 17 15  1  0
 17 16  2  0
 18 16  1  0
 19 17  1  0
 20 19  1  0
 21 20  2  0
 22 20  1  0
 23 22  1  0
 24 23  2  0
 25 23  1  0
 26 24  1  0
 27 25  2  0
 28 27  1  0
 28 26  2  0
 29 28  1  0
 30 29  1  0
 31 30  2  0
 32 30  1  0
 33 32  1  0
 34 33  1  0
M  CHG  2   2  -1  15   1
M  END
>  <SMILES>  (8) 
CCOC(=O)Nc1ccc(OC(=O)Cc2[sH+]c(C=NNC(=O)CN3C=C[CH-]C=C3)cc2C)cc1

>  <scaffold>  (8) 
pyridine

$$$$

     RDKit          3D

 18 19  0  0  0  0  0  0  0  0999 V2000
   -0.0000   -0.0000    0.0000 C   0  0  0  0  0  0  0  0  0  0  0  0
    0.0000   -0.0000    1.3862 C   0  0  0  0  0  0  0  0  0  0  0  0
    1.2181    0.0000    2.0805 C   0  0  0  0  0  0  0  0  0  0  0  0
    1.2059   -0.0592   -0.6971 C   0  0  0  0  0  0  0  0  0  0  0  0
    2.3813   -0.1170   -0.0902 N   0  0  0  0  0  0  0  0  0  0  0  0
    2.4437   -0.1201    1.2249 C   0  0  0  0  0  0  0  0  0  0  0  0
    1.2675   -0.0494    3.4491 N   0  0  0  0  0  0  0  0  0  0  0  0
    4.0146   -0.2602    1.9668 S   0  0  0  0  0  0  0  0  0  0  0  0
    1.2583   -0.0118   -2.0814 N   0  0  0  0  0  0  0  0  0  0  0  0
    0.2726    0.0919   -3.0051 C   0  0  0  0  0  0  0  0  0  0  0  0
   -0.9143    0.1080   -2.7453 O   0  0  0  0  0  0  0  0  0  0  0  0
    5.1591   -0.2979    0.5597 C   0  0  0  0  0  0  0  0  0  0  0  0
    0.7800    0.1678   -4.4166 C   0  0  0  0  0  0  0  0  0  0  0  0
    2.1050    0.1266   -4.6074 N   0  0  0  0  0  0  0  0  0  0  0  0
   -0.0745    0.3317   -5.4957 C   0  0  0  0  0  0  0  0  0  0  0  0
    2.5930    0.2369   -5.8170 C   0  0  0  0  0  0  0  0  0  0  0  0
    0.4473    0.4465   -6.7834 C   0  0  0  0  0  0  0  0  0  0  0  0
    1.7898    0.3987   -6.9449 C   0  0  0  0  0  0  0  0  0  0  0  0
  2  1  2  0
  3  2  1  0
  4  1  1  0
  5  4  2  0
  6  5  1  0
  6  3  2  0
  7  3  1  0
  8  6  1  0
  9  4  1  0
 10  9  1  0
 11 10  2  0
 12  8  1  0
 13 10  1  0
 14 13  2  0
 15 13  1  0
 16 14  1  0
 17 15  2  0
 18 17  1  0
 18 16  2  0
M  END
>  <SMILES>  (9) 
CSc1nc(NC(=O)c2ccccn2)ccc1N

>  <scaffold>  (9) 
pyridine

$$$$

     RDKit          3D

 23 25  0  0  0  0  0  0  0  0999 V2000
   -0.0000   -0.0000   -0.0000 C   0  0  0  0  0  0  0  0  0  0  0  0
   -0.0000    0.0000    1.3015 N   0  0  0  0  0  0  0  0  0  0  0  0
    1.1811    0.0000    1.9493 C   0  0  0  0  0  0  0  0  0  0  0  0
    1.1854   -0.0000   -0.7638 C   0  0  0  0  0  0  0  0  0  0  0  0
    2.4033   -0.0000   -0.1358 C   0  0  0  0  0  0  0  0  0  0  0  0
    2.4033    0.0000    1.2744 C   0  0  0  0  0  0  0  0  0  0  0  0
    3.5825   -0.0547    2.0311 C   0  0  0  0  0  0  0  0  0  0  0  0
    3.5351   -0.0027    3.4075 C   0  0  0  0  0  0  0  0  0  0  0  0
    2.3190    0.1062    4.1130 C   0  0  0  0  0  0  0  0  0  0  0  0
    1.1633    0.1025    3.3912 C   0  0  0  0  0  0  0  0  0  0  0  0
    4.7407   -0.0111    4.0256 O   0  0  0  0  0  0  0  0  0  0  0  0
    4.7418   -0.0101    5.4439 C   0  0  0  0  0  0  0  0  0  0  0  0
    4.1848   -1.2516    6.0995 C   0  0  0  0  0  0  0  0  0  0  0  0
    4.2080   -2.4523    5.4073 C   0  0  0  0  0  0  0  0  0  0  0  0
    3.6976   -1.2089    7.4051 C   0  0  0  0  0  0  0  0  0  0  0  0
    3.7340   -3.5673    6.0644 C   0  0  0  0  0  0  0  0  0  0  0  0
    3.2232   -2.3318    8.0649 C   0  0  0  0  0  0  0  0  0  0  0  0
    3.2951   -3.5342    7.4041 C   0  0  0  0  0  0  0  0  0  0  0  0
    3.6290   -4.8029    5.5383 O   0  0  0  0  0  0  0  0  0  0  0  0
    3.9676   -5.0180    4.1780 C   0  0  0  0  0  0  0  0  0  0  0  0
    2.8717   -4.5235    3.2352 C   0  0  0  0  0  0  0  0  0  0  0  0
    2.8072   -4.6701    7.9193 O   0  0  0  0  0  0  0  0  0  0  0  0
    2.4712   -4.8250    9.2969 C   0  0  0  0  0  0  0  0  0  0  0  0
  2  1  2  0
  3  2  1  0
  4  1  1  0
  5  4  2  0
  6  5  1  0
  6  3  2  0
  7  6  1  0
  8  7  2  0
  9  8  1  0
 10  9  2  0
 10  3  1  0
 11  8  1  0
 12 11  1  0
 13 12  1  0
 14 13  2  0
 15 13  1  0
 16 14  1  0
 17 15  2  0
 18 17  1  0
 18 16  2  0
 19 16  1  0
 20 19  1  0
 21 20  1  0
 22 18  1  0
 23 22  1  0
M  END
>  <SMILES>  (10) 
CCOc1cc(COc2ccc3ncccc3c2)ccc1OC

>  <scaffold>  (10) 
pyridine

$$$$

     RDKit          3D

 27 29  0  0  0  0  0  0  0  0999 V2000
    0.0000    0.0000    0.0000 C   0  0  0  0  0  0  0  0  0  0  0  0
   -0.0000    0.0000    1.3625 N   0  0  0  0  0  0  0  0  0  0  0  0
    1.1622   -0.0000    2.1033 C   0  0  0  0  0  0  0  0  0  0  0  0
    1.1388   -0.0000   -0.7338 C   0  0  0  0  0  0  0  0  0  0  0  0
    2.3921    0.0000   -0.0875 C   0  0  0  0  0  0  0  0  0  0  0  0
    2.3921    0.0000    1.2750 C   0  0  0  0  0  0  0  0  0  0  0  0
    1.1181    0.0441    3.3238 O   0  0  0  0  0  0  0  0  0  0  0  0
   -1.2750   -0.0000    2.0201 C   0  0  0  0  0  0  0  0  0  0  0  0
   -2.2695    0.9013    1.6735 C   0  0  0  0  0  0  0  0  0  0  0  0
   -1.5302   -0.9523    3.0058 C   0  0  0  0  0  0  0  0  0  0  0  0
   -3.5096    0.8304    2.3065 C   0  0  0  0  0  0  0  0  0  0  0  0
   -2.7642   -1.0226    3.6332 C   0  0  0  0  0  0  0  0  0  0  0  0
   -3.7338   -0.0986    3.3215 C   0  0  0  0  0  0  0  0  0  0  0  0
   -4.5341    1.7621    1.8725 C   0  0  0  0  0  0  0  0  0  0  0  0
   -5.7265    1.8744    2.3819 N   0  0  0  0  0  0  0  0  0  0  0  0
   -4.3415    2.6365    0.8558 O   0  0  0  0  0  0  0  0  0  0  0  0
   -6.3395    2.8106    1.6460 N   0  0  0  0  0  0  0  0  0  0  0  0
   -5.5346    3.2393    0.7738 C   0  0  0  0  0  0  0  0  0  0  0  0
    3.5723    0.0489    1.9386 F   0  0  0  0  0  0  0  0  0  0  0  0
   -3.0729   -1.9607    4.5606 O   0  0  0  0  0  0  0  0  0  0  0  0
   -2.1028   -2.9293    4.9241 C   0  0  0  0  0  0  0  0  0  0  0  0
   -2.7422   -3.8823    5.9326 C   0  0  0  0  0  0  0  0  0  0  0  0
   -3.9633   -4.6487    5.4010 C   0  0  2  0  0  0  0  0  0  0  0  0
   -4.5370   -5.5151    6.5212 C   0  0  0  0  0  0  0  0  0  0  0  0
   -3.6029   -5.4789    4.1700 C   0  0  0  0  0  0  0  0  0  0  0  0
   -4.8338   -6.2612    3.7148 C   0  0  0  0  0  0  0  0  0  0  0  0
   -4.5400   -7.0677    2.4508 C   0  0  0  0  0  0  0  0  0  0  0  0
  2  1  1  0
  3  2  1  0
  4  1  2  0
  5  4  1  0
  6  5  2  0
  6  3  1  0
  7  3  2  0
  8  2  1  0
  9  8  2  0
 10  8  1  0
 11  9  1  0
 12 10  2  0
 13 12  1  0
 13 11  2  0
 14 11  1  0
 15 14  2  0
 16 14  1  0
 17 15  1  0
 18 17  2  0
 18 16  1  0
 19  6  1  0
 20 12  1  0
 21 20  1  0
 22 21  1  0
 23 22  1  0
 23 24  1  1
 25 23  1  0
 26 25  1  0
 27 26  1  0
M  END
>  <SMILES>  (11) 
CCCC(C)CCOc1cc(-c2nnco2)cc(-n2cccc(F)c2=O)c1

>  <scaffold>  (11) 
pyridine

$$$$

     RDKit          3D

 33 35  0  0  0  0  0  0  0  0999 V2000
    0.0000   -0.0000    0.0000 C   0  0  0  0  0  0  0  0  0  0  0  0
    0.0000   -0.0000    1.3317 N   0  0  0  0  0  0  0  0  0  0  0  0
    1.1437    0.0000    1.9837 C   0  0  0  0  0  0  0  0  0  0  0  0
    1.1719   -0.0000   -0.7551 C   0  0  0  0  0  0  0  0  0  0  0  0
    2.3968   -0.0000   -0.1235 C   0  0  0  0  0  0  0  0  0  0  0  0
    2.3968   -0.0000    1.2627 C   0  0  0  0  0  0  0  0  0  0  0  0
   -1.2924    0.0000   -0.5228 N   0  0  0  0  0  0  0  0  0  0  0  0
   -1.6369   -0.0546   -1.8562 C   0  0  0  0  0  0  0  0  0  0  0  0
   -0.8686   -0.1121   -2.8048 O   0  0  0  0  0  0  0  0  0  0  0  0
    3.8978    0.0622    2.1067 Cl  0  0  0  0  0  0  0  0  0  0  0  0
   -2.9701    0.0153   -2.0355 N   0  0  0  0  0  0  0  0  0  0  0  0
   -3.5387   -0.0833   -3.3670 C   0  0  1  0  0  0  0  0  0  0  0  0
   -4.4157   -1.3087   -3.4704 C   0  0  0  0  0  0  0  0  0  0  0  0
   -4.1586   -2.3164   -4.3869 C   0  0  0  0  0  0  0  0  0  0  0  0
   -5.5431   -1.4471   -2.6620 C   0  0  0  0  0  0  0  0  0  0  0  0
   -4.9134   -3.4939   -4.4858 C   0  0  0  0  0  0  0  0  0  0  0  0
   -6.2850   -2.6047   -2.7572 C   0  0  0  0  0  0  0  0  0  0  0  0
   -5.9445   -3.6456   -3.5479 C   0  0  0  0  0  0  0  0  0  0  0  0
   -4.6529   -4.4355   -5.4356 N   0  0  0  0  0  0  0  0  0  0  0  0
   -4.2579    1.2147   -3.7310 C   0  0  0  0  0  0  0  0  0  0  0  0
   -3.5571   -4.3435   -6.3697 C   0  0  0  0  0  0  0  0  0  0  0  0
   -3.6089   -5.5193   -7.3026 C   0  0  0  0  0  0  0  0  0  0  0  0
   -2.5501   -6.4089   -7.3972 C   0  0  0  0  0  0  0  0  0  0  0  0
   -4.6907   -5.7213   -8.1454 C   0  0  0  0  0  0  0  0  0  0  0  0
   -2.6637   -7.5068   -8.2356 C   0  0  0  0  0  0  0  0  0  0  0  0
   -4.8056   -6.8170   -8.9866 C   0  0  0  0  0  0  0  0  0  0  0  0
   -3.8321   -7.7505   -8.9249 C   0  0  0  0  0  0  0  0  0  0  0  0
   -5.8294   -7.1485   -9.8095 O   0  0  0  0  0  0  0  0  0  0  0  0
   -6.9058   -6.2378   -9.7838 C   0  0  0  0  0  0  0  0  0  0  0  0
   -7.9105   -6.8841  -10.7363 C   0  0  0  0  0  0  0  0  0  0  0  0
   -9.1252   -5.9580  -10.7017 C   0  0  0  0  0  0  0  0  0  0  0  0
  -10.1137   -6.6731  -11.6214 C   0  0  0  0  0  0  0  0  0  0  0  0
  -11.3737   -5.8099  -11.5779 C   0  0  0  0  0  0  0  0  0  0  0  0
  2  1  2  0
  3  2  1  0
  4  1  1  0
  5  4  2  0
  6  5  1  0
  6  3  2  0
  7  1  1  0
  8  7  1  0
  9  8  2  0
 10  6  1  0
 11  8  1  0
 12 11  1  0
 13 12  1  0
 14 13  2  0
 15 13  1  0
 16 14  1  0
 17 15  2  0
 18 17  1  0
 18 16  2  0
 19 16  1  0
 12 20  1  1
 21 19  1  0
 22 21  1  0
 23 22  2  0
 24 22  1  0
 25 23  1  0
 26 24  2  0
 27 26  1  0
 27 25  2  0
 28 26  1  0
 29 28  1  0
 30 29  1  0
 31 30  1  0
 32 31  1  0
 33 32  1  0
M  END
>  <SMILES>  (12) 
CCCCCOc1cccc(CNc2cccc(C(C)NC(=O)Nc3ccc(Cl)cn3)c2)c1

>  <scaffold>  (12) 
pyridine

$$$$

     RDKit          3D

 30 32  0  0  0  0  0  0  0  0999 V2000
   -0.0000   -0.0000   -0.0000 C   0  0  0  0  0  0  0  0  0  0  0  0
   -0.0000    0.0000    1.3241 N   0  0  0  0  0  0  0  0  0  0  0  0
    1.1713    0.0000    1.9417 C   0  0  0  0  0  0  0  0  0  0  0  0
    1.1652    0.0000   -0.7508 C   0  0  0  0  0  0  0  0  0  0  0  0
    2.4043   -0.0000   -0.1119 C   0  0  0  0  0  0  0  0  0  0  0  0
    2.4043    0.0000    1.2743 C   0  0  0  0  0  0  0  0  0  0  0  0
    3.8929   -0.0625   -0.9968 Cl  0  0  0  0  0  0  0  0  0  0  0  0
    1.1110    0.0542   -2.2507 C   0  0  0  0  0  0  0  0  0  0  0  0
    1.8180    1.2328   -2.7163 N   0  0  0  0  0  0  0  0  0  0  0  0
    2.2009    1.2110   -4.1158 C   0  0  0  0  0  0  0  0  0  0  0  0
    1.1757    2.4963   -2.4053 C   0  0  0  0  0  0  0  0  0  0  0  0
    2.0673    3.6969   -2.7182 C   0  0  0  0  0  0  0  0  0  0  0  0
    3.1291    2.3656   -4.4899 C   0  0  0  0  0  0  0  0  0  0  0  0
    2.4119    3.6646   -4.1189 N   0  0  0  0  0  0  0  0  0  0  0  0
    1.9201    4.5020   -5.0635 C   0  0  0  0  0  0  0  0  0  0  0  0
    2.0515    4.2844   -6.2517 O   0  0  0  0  0  0  0  0  0  0  0  0
    1.2687    5.7426   -4.5474 C   0  0  0  0  0  0  0  0  0  0  0  0
   -0.0530    5.9817   -4.8898 C   0  0  0  0  0  0  0  0  0  0  0  0
    1.9995    6.6928   -3.8356 C   0  0  0  0  0  0  0  0  0  0  0  0
   -0.6843    7.1441   -4.4754 C   0  0  0  0  0  0  0  0  0  0  0  0
    1.3630    7.8517   -3.4193 C   0  0  0  0  0  0  0  0  0  0  0  0
    0.0347    8.1012   -3.7608 C   0  0  0  0  0  0  0  0  0  0  0  0
   -1.9813    7.4632   -4.7016 O   0  0  0  0  0  0  0  0  0  0  0  0
   -2.7881    6.5982   -5.4694 C   0  0  0  0  0  0  0  0  0  0  0  0
   -2.4961    6.7264   -6.9636 C   0  0  0  0  0  0  0  0  0  0  0  0
   -2.8291    8.1231   -7.4857 C   0  0  0  0  0  0  0  0  0  0  0  0
   -2.6059    8.2869   -8.9883 C   0  0  0  0  0  0  0  0  0  0  0  0
   -3.0022    9.6737   -9.4654 C   0  0  0  0  0  0  0  0  0  0  0  0
   -2.8492    9.8711  -10.9727 C   0  0  0  0  0  0  0  0  0  0  0  0
   -3.3114   11.2609  -11.4078 C   0  0  0  0  0  0  0  0  0  0  0  0
  2  1  2  0
  3  2  1  0
  4  1  1  0
  5  4  2  0
  6  5  1  0
  6  3  2  0
  7  5  1  0
  8  4  1  0
  9  8  1  0
 10  9  1  0
 11  9  1  0
 12 11  1  0
 13 10  1  0
 14 13  1  0
 14 12  1  0
 15 14  1  0
 16 15  2  0
 17 15  1  0
 18 17  2  0
 19 17  1  0
 20 18  1  0
 21 19  2  0
 22 21  1  0
 22 20  2  0
 23 20  1  0
 24 23  1  0
 25 24  1  0
 26 25  1  0
 27 26  1  0
 28 27  1  0
 29 28  1  0
 30 29  1  0
M  END
>  <SMILES>  (13) 
CCCCCCCOc1cccc(C(=O)N2CCN(Cc3cnccc3Cl)CC2)c1

>  <scaffold>  (13) 
pyridine

$$$$

     RDKit          3D

 27 28  0  0  0  0  0  0  0  0999 V2000
   -0.0000   -0.0000    0.0000 C   0  0  0  0  0  0  0  0  0  0  0  0
    0.0000   -0.0000    1.3941 C   0  0  0  0  0  0  0  0  0  0  0  0
    1.2042    0.0000    2.0806 C   0  0  0  0  0  0  0  0  0  0  0  0
    1.2533   -0.0000   -0.6463 C   0  0  0  0  0  0  0  0  0  0  0  0
    2.3664   -0.0000    0.0709 N   0  0  0  0  0  0  0  0  0  0  0  0
    2.3664    0.0000    1.3874 C   0  0  0  0  0  0  0  0  0  0  0  0
    1.3795    0.0522   -1.9787 F   0  0  0  0  0  0  0  0  0  0  0  0
   -1.1519   -0.0000   -0.7423 N   0  0  0  0  0  0  0  0  0  0  0  0
   -2.3542    0.0591   -0.1906 N   0  0  0  0  0  0  0  0  0  0  0  0
   -3.4019    0.1027   -0.9235 C   0  0  0  0  0  0  0  0  0  0  0  0
   -4.7371    0.2203   -0.3675 C   0  0  0  0  0  0  0  0  0  0  0  0
   -5.7298    0.3065   -1.2165 N   0  0  0  0  0  0  0  0  0  0  0  0
   -4.9853    0.2326    0.9962 C   0  0  0  0  0  0  0  0  0  0  0  0
   -6.9635    0.4660   -0.8338 N   0  0  0  0  0  0  0  0  0  0  0  0
   -6.2989    0.4037    1.4043 C   0  0  0  0  0  0  0  0  0  0  0  0
   -7.2546    0.5468    0.4399 C   0  0  0  0  0  0  0  0  0  0  0  0
   -8.9402    0.6986    0.8966 S   0  0  0  0  0  0  0  0  0  0  0  0
   -9.7937    0.8972   -0.7158 C   0  0  2  0  0  0  0  0  0  0  0  0
   -9.6088    2.3066   -1.2267 C   0  0  0  0  0  0  0  0  0  0  0  0
  -11.2844    0.6157   -0.5347 C   0  0  0  0  0  0  0  0  0  0  0  0
  -12.1072    0.6890   -1.8200 C   0  0  0  0  0  0  0  0  0  0  0  0
  -13.5874    0.3447   -1.5928 C   0  0  0  0  0  0  0  0  0  0  0  0
  -14.4434    0.3504   -2.8583 C   0  0  0  0  0  0  0  0  0  0  0  0
  -15.9007   -0.0531   -2.5850 C   0  0  0  0  0  0  0  0  0  0  0  0
  -16.8124   -0.0104   -3.8103 C   0  0  0  0  0  0  0  0  0  0  0  0
  -18.2348   -0.4719   -3.4969 C   0  0  0  0  0  0  0  0  0  0  0  0
  -19.1730   -0.4997   -4.7024 C   0  0  0  0  0  0  0  0  0  0  0  0
  2  1  2  0
  3  2  1  0
  4  1  1  0
  5  4  2  0
  6  5  1  0
  6  3  2  0
  7  4  1  0
  8  1  1  0
  9  8  1  0
 10  9  2  0
 11 10  1  0
 12 11  2  0
 13 11  1  0
 14 12  1  0
 15 13  2  0
 16 15  1  0
 16 14  2  0
 17 16  1  0
 18 17  1  0
 18 19  1  1
 20 18  1  0
 21 20  1  0
 22 21  1  0
 23 22  1  0
 24 23  1  0
 25 24  1  0
 26 25  1  0
 27 26  1  0
M  END
>  <SMILES>  (14) 
CCCCCCCCC(C)Sc1ccc(C=NNc2cccnc2F)nn1

>  <scaffold>  (14) 
pyridine

$$$$

     RDKit          3D

 24 26  0  0  0  0  0  0  0  0999 V2000
   -0.0000    0.0000    0.0000 C   0  0  0  0  0  0  0  0  0  0  0  0
   -0.0000    0.0000    1.3241 N   0  0  0  0  0  0  0  0  0  0  0  0
    1.1713    0.0000    1.9417 C   0  0  0  0  0  0  0  0  0  0  0  0
    1.1652   -0.0000   -0.7508 C   0  0  0  0  0  0  0  0  0  0  0  0
    2.4043    0.0000   -0.1119 C   0  0  0  0  0  0  0  0  0  0  0  0
    2.4043    0.0000    1.2822 C   0  0  0  0  0  0  0  0  0  0  0  0
    3.6341   -0.0541   -0.7491 N   0  0  0  0  0  0  0  0  0  0  0  0
    3.8719   -0.2437   -2.0772 C   0  0  0  0  0  0  0  0  0  0  0  0
    3.0689   -0.3445   -2.9651 O   0  0  0  0  0  0  0  0  0  0  0  0
    5.1937   -0.2765   -2.2353 O   0  0  0  0  0  0  0  0  0  0  0  0
    5.6473   -0.4133   -3.5807 C   0  0  0  0  0  0  0  0  0  0  0  0
    5.6583    0.9030   -4.2857 C   0  0  0  0  0  0  0  0  0  0  0  0
    6.7850    1.5163   -4.5466 N   0  0  0  0  0  0  0  0  0  0  0  0
    4.5715    1.6695   -4.7300 C   0  0  0  0  0  0  0  0  0  0  0  0
    6.4556    2.6840   -5.1318 O   0  0  0  0  0  0  0  0  0  0  0  0
    5.1210    2.7991   -5.2578 C   0  0  0  0  0  0  0  0  0  0  0  0
    4.5769    4.0492   -5.8456 C   0  0  0  0  0  0  0  0  0  0  0  0
    3.1790    4.1035   -5.6680 O   0  0  0  0  0  0  0  0  0  0  0  0
    2.7565    4.4500   -4.3940 C   0  0  0  0  0  0  0  0  0  0  0  0
    2.8700    5.7381   -3.8946 C   0  0  0  0  0  0  0  0  0  0  0  0
    2.0480    3.4845   -3.6804 C   0  0  0  0  0  0  0  0  0  0  0  0
    2.3910    6.0463   -2.6395 C   0  0  0  0  0  0  0  0  0  0  0  0
    1.5625    3.8029   -2.4217 C   0  0  0  0  0  0  0  0  0  0  0  0
    1.7791    5.0960   -1.8233 C   0  0  0  0  0  0  0  0  0  0  0  0
  2  1  2  0
  3  2  1  0
  4  1  1  0
  5  4  2  0
  6  5  1  0
  6  3  2  0
  7  5  1  0
  8  7  1  0
  9  8  2  0
 10  8  1  0
 11 10  1  0
 12 11  1  0
 13 12  2  0
 14 12  1  0
 15 13  1  0
 16 14  2  0
 16 15  1  0
 17 16  1  0
 18 17  1  0
 19 18  1  0
 20 19  2  0
 21 19  1  0
 22 20  1  0
 23 21  2  0
 24 23  1  0
 24 22  2  0
M  END
>  <SMILES>  (15) 
O=C(Nc1ccncc1)OCc1cc(COc2ccccc2)on1

>  <scaffold>  (15) 
pyridine

$$$$

     RDKit          3D

 17 18  0  0  0  0  0  0  0  0999 V2000
   -0.0000   -0.0000   -0.0000 C   0  0  0  0  0  0  0  0  0  0  0  0
    0.0000    0.0000    1.3241 N   0  0  0  0  0  0  0  0  0  0  0  0
    1.1609    0.0000    1.9608 C   0  0  0  0  0  0  0  0  0  0  0  0
    1.1719   -0.0000   -0.7551 C   0  0  0  0  0  0  0  0  0  0  0  0
    2.4039   -0.0000   -0.1198 C   0  0  0  0  0  0  0  0  0  0  0  0
    2.4039   -0.0000    1.2663 C   0  0  0  0  0  0  0  0  0  0  0  0
   -1.2180   -0.0000   -0.6281 N   0  0  0  0  0  0  0  0  0  0  0  0
   -1.4143    0.0526   -1.9442 N   0  0  0  0  0  0  0  0  0  0  0  0
   -2.5995   -0.0031   -2.4227 C   0  0  0  0  0  0  0  0  0  0  0  0
   -2.8584   -0.0019   -3.8338 C   0  0  0  0  0  0  0  0  0  0  0  0
   -1.8102    0.0610   -4.7386 C   0  0  0  0  0  0  0  0  0  0  0  0
   -4.1569   -0.1135   -4.3057 C   0  0  0  0  0  0  0  0  0  0  0  0
   -2.0094    0.0146   -6.1176 C   0  0  0  0  0  0  0  0  0  0  0  0
   -4.3520   -0.1572   -5.6694 C   0  0  0  0  0  0  0  0  0  0  0  0
   -3.3245   -0.0403   -6.5771 C   0  0  0  0  0  0  0  0  0  0  0  0
   -0.8564    0.0358   -6.8434 O   0  0  0  0  0  0  0  0  0  0  0  0
   -0.8998   -0.1590   -8.2475 C   0  0  0  0  0  0  0  0  0  0  0  0
  2  1  2  0
  3  2  1  0
  4  1  1  0
  5  4  2  0
  6  5  1  0
  6  3  2  0
  7  1  1  0
  8  7  1  0
  9  8  2  0
 10  9  1  0
 11 10  2  0
 12 10  1  0
 13 11  1  0
 14 12  2  0
 15 14  1  0
 15 13  2  0
 16 13  1  0
 17 16  1  0
M  END
>  <SMILES>  (16) 
COc1cccc(C=NNc2ccccn2)c1

>  <scaffold>  (16) 
pyridine

$$$$

     RDKit          3D

 29 31  0  0  0  0  0  0  0  0999 V2000
   -0.0000    0.0000    0.0000 C   0  0  0  0  0  0  0  0  0  0  0  0
    0.0000   -0.0000    1.3782 C   0  0  0  0  0  0  0  0  0  0  0  0
    1.2134   -0.0000    2.0967 C   0  0  0  0  0  0  0  0  0  0  0  0
    1.2804    0.0629   -0.5876 C   0  0  0  0  0  0  0  0  0  0  0  0
    2.4011    0.0629    0.0595 N   0  0  0  0  0  0  0  0  0  0  0  0
    2.4013    0.0592    1.4065 C   0  0  0  0  0  0  0  0  0  0  0  0
    3.5886    0.1096    2.1506 C   0  0  0  0  0  0  0  0  0  0  0  0
    3.6355    0.1569    3.5037 C   0  0  0  0  0  0  0  0  0  0  0  0
    2.4289    0.1560    4.2180 C   0  0  0  0  0  0  0  0  0  0  0  0
    1.1973    0.1102    3.6370 C   0  0  0  0  0  0  0  0  0  0  0  0
   -1.0865   -0.0534   -0.7813 O   0  0  0  0  0  0  0  0  0  0  0  0
   -2.3696   -0.1798   -0.1903 C   0  0  0  0  0  0  0  0  0  0  0  0
   -2.6005   -1.4798    0.5432 C   0  0  0  0  0  0  0  0  0  0  0  0
   -3.4026   -1.5627    1.6609 C   0  0  0  0  0  0  0  0  0  0  0  0
   -2.0100   -2.6344    0.0537 C   0  0  0  0  0  0  0  0  0  0  0  0
   -3.6242   -2.7872    2.2715 C   0  0  0  0  0  0  0  0  0  0  0  0
   -2.2309   -3.8446    0.6575 C   0  0  0  0  0  0  0  0  0  0  0  0
   -3.0678   -3.9587    1.8050 C   0  0  0  0  0  0  0  0  0  0  0  0
   -3.2524   -5.2210    2.2835 O   0  0  0  0  0  0  0  0  0  0  0  0
   -4.1169   -5.3136    3.3835 C   0  0  0  0  0  0  0  0  0  0  0  0
   -3.6332   -4.6835    4.6886 C   0  0  0  0  0  0  0  0  0  0  0  0
   -4.4028   -4.3943    5.5928 O   0  0  0  0  0  0  0  0  0  0  0  0
   -2.2867   -4.5474    4.7510 N   0  0  0  0  0  0  0  0  0  0  0  0
   -1.6336   -4.0285    5.9182 C   0  0  0  0  0  0  0  0  0  0  0  0
   -0.7180   -5.0897    6.5483 C   0  0  0  0  0  0  0  0  0  0  0  0
    0.2995   -5.4180    5.6164 O   0  0  0  0  0  0  0  0  0  0  0  0
    1.3485   -6.2014    6.1403 C   0  0  0  0  0  0  0  0  0  0  0  0
    0.9892   -7.6614    6.4573 C   0  0  0  0  0  0  0  0  0  0  0  0
    2.2240   -8.4082    6.9593 C   0  0  0  0  0  0  0  0  0  0  0  0
  2  1  2  0
  3  2  1  0
  4  1  1  0
  5  4  2  0
  6  5  1  0
  6  3  2  0
  7  6  1  0
  8  7  2  0
  9  8  1  0
 10  9  2  0
 10  3  1  0
 11  1  1  0
 12 11  1  0
 13 12  1  0
 14 13  2  0
 15 13  1  0
 16 14  1  0
 17 15  2  0
 18 17  1  0
 18 16  2  0
 19 18  1  0
 20 19  1  0
 21 20  1  0
 22 21  2  0
 23 21  1  0
 24 23  1  0
 25 24  1  0
 26 25  1  0
 27 26  1  0
 28 27  1  0
 29 28  1  0
M  END
>  <SMILES>  (17) 
CCCOCCNC(=O)COc1ccc(COc2cnc3ccccc3c2)cc1

>  <scaffold>  (17) 
pyridine

$$$$

     RDKit          3D

 27 28  0  0  0  0  0  0  0  0999 V2000
    0.0000   -0.0000    0.0000 C   0  0  0  0  0  0  0  0  0  0  0  0
    0.0000   -0.0000    1.3862 C   0  0  0  0  0  0  0  0  0  0  0  0
    1.1996   -0.0000    2.0964 C   0  0  0  0  0  0  0  0  0  0  0  0
    1.2391    0.0000   -0.6390 C   0  0  0  0  0  0  0  0  0  0  0  0
    2.3844   -0.0563    0.0231 N   0  0  0  0  0  0  0  0  0  0  0  0
    2.3837   -0.1160    1.3534 C   0  0  0  0  0  0  0  0  0  0  0  0
   -1.2041   -0.0000   -0.6209 F   0  0  0  0  0  0  0  0  0  0  0  0
    1.0336    0.0688    3.8502 S   0  0  0  0  0  0  0  0  0  0  0  0
    3.5842   -0.2216    1.9891 N   0  0  0  0  0  0  0  0  0  0  0  0
    4.8616   -0.2204    1.5378 N   0  0  0  0  0  0  0  0  0  0  0  0
    5.2550   -0.9555    0.5578 C   0  0  0  0  0  0  0  0  0  0  0  0
    6.6384   -0.7677    0.1933 C   0  0  0  0  0  0  0  0  0  0  0  0
    7.5171    0.1567    0.6725 C   0  0  0  0  0  0  0  0  0  0  0  0
    7.3327   -1.7358   -1.0654 S   0  0  0  0  0  0  0  0  0  0  0  0
    8.7717    0.1023    0.0670 C   0  0  0  0  0  0  0  0  0  0  0  0
    8.8066   -0.8970   -0.9045 C   0  0  0  0  0  0  0  0  0  0  0  0
    4.4461   -1.8269   -0.0588 O   0  0  0  0  0  0  0  0  0  0  0  0
    9.7914    0.9080    0.4495 O   0  0  0  0  0  0  0  0  0  0  0  0
   11.0544    0.9856   -0.2264 C   0  0  0  0  0  0  0  0  0  0  0  0
   10.9236    1.6859   -1.5780 C   0  0  0  0  0  0  0  0  0  0  0  0
   10.5726    3.1609   -1.3890 C   0  0  0  0  0  0  0  0  0  0  0  0
   10.4000    3.8004   -2.7658 C   0  0  0  0  0  0  0  0  0  0  0  0
    9.9935    5.2670   -2.6310 C   0  0  0  0  0  0  0  0  0  0  0  0
    9.7814    5.8431   -4.0301 C   0  0  0  0  0  0  0  0  0  0  0  0
    9.4254    7.3268   -3.9522 C   0  0  0  0  0  0  0  0  0  0  0  0
    9.1709    7.8398   -5.3687 C   0  0  0  0  0  0  0  0  0  0  0  0
    8.7542    9.3186   -5.3407 C   0  0  0  0  0  0  0  0  0  0  0  0
  2  1  2  0
  3  2  1  0
  4  1  1  0
  5  4  2  0
  6  5  1  0
  6  3  2  0
  7  1  1  0
  8  3  1  0
  9  6  1  0
 10  9  1  0
 11 10  2  0
 12 11  1  0
 13 12  2  0
 14 12  1  0
 15 13  1  0
 16 15  2  0
 16 14  1  0
 17 11  1  0
 18 15  1  0
 19 18  1  0
 20 19  1  0
 21 20  1  0
 22 21  1  0
 23 22  1  0
 24 23  1  0
 25 24  1  0
 26 25  1  0
 27 26  1  0
M  END
>  <SMILES>  (18) 
CCCCCCCCCOc1csc(C(O)=NNc2ncc(F)cc2S)c1

>  <scaffold>  (18) 
pyridine

$$$$

     RDKit          3D

 25 27  0  0  0  0  0  0  0  0999 V2000
    0.0000    0.0000    0.0000 C   0  0  0  0  0  0  0  0  0  0  0  0
    0.0000    0.0000    1.3241 N   0  0  0  0  0  0  0  0  0  0  0  0
    1.1543   -0.0000    1.9572 C   0  0  0  0  0  0  0  0  0  0  0  0
    1.1652    0.0000   -0.7508 C   0  0  0  0  0  0  0  0  0  0  0  0
    2.3972   -0.0000   -0.1155 C   0  0  0  0  0  0  0  0  0  0  0  0
    2.3972    0.0000    1.2706 C   0  0  0  0  0  0  0  0  0  0  0  0
    3.5639    0.0483    1.9266 F   0  0  0  0  0  0  0  0  0  0  0  0
   -1.2658    0.0622   -0.5809 N   0  0  0  0  0  0  0  0  0  0  0  0
   -1.6048   -0.1724   -1.8796 C   0  0  0  0  0  0  0  0  0  0  0  0
   -2.3517    0.3342    0.1405 N   0  0  0  0  0  0  0  0  0  0  0  0
   -2.9674    0.0763   -1.9332 C   0  0  0  0  0  0  0  0  0  0  0  0
   -3.3751    0.3851   -0.6133 N   0  0  0  0  0  0  0  0  0  0  0  0
   -3.9160    0.0551   -3.0752 C   0  0  0  0  0  0  0  0  0  0  0  0
   -3.3206    0.4333   -4.2963 O   0  0  0  0  0  0  0  0  0  0  0  0
   -2.8466    1.7049   -4.4185 C   0  0  0  0  0  0  0  0  0  0  0  0
   -2.2189    2.0190   -5.6323 C   0  0  0  0  0  0  0  0  0  0  0  0
   -2.9337    2.7094   -3.4904 C   0  0  0  0  0  0  0  0  0  0  0  0
   -1.7519    3.2724   -5.8921 C   0  0  0  0  0  0  0  0  0  0  0  0
   -2.4566    3.9837   -3.7548 C   0  0  0  0  0  0  0  0  0  0  0  0
   -1.8811    4.2970   -4.9556 C   0  0  0  0  0  0  0  0  0  0  0  0
   -1.4503    5.5248   -5.2732 F   0  0  0  0  0  0  0  0  0  0  0  0
   -2.5520    4.8828   -2.7354 O   0  0  0  0  0  0  0  0  0  0  0  0
   -2.1517    6.2252   -2.8978 C   0  0  0  0  0  0  0  0  0  0  0  0
   -0.6300    6.3596   -2.8739 C   0  0  0  0  0  0  0  0  0  0  0  0
   -0.2512    7.8346   -2.9984 C   0  0  0  0  0  0  0  0  0  0  0  0
  2  1  2  0
  3  2  1  0
  4  1  1  0
  5  4  2  0
  6  5  1  0
  6  3  2  0
  7  6  1  0
  8  1  1  0
  9  8  1  0
 10  8  1  0
 11  9  2  0
 12 11  1  0
 12 10  2  0
 13 11  1  0
 14 13  1  0
 15 14  1  0
 16 15  2  0
 17 15  1  0
 18 16  1  0
 19 17  2  0
 20 18  2  0
 20 19  1  0
 21 20  1  0
 22 19  1  0
 23 22  1  0
 24 23  1  0
 25 24  1  0
M  END
>  <SMILES>  (19) 
CCCOc1cc(OCc2cn(-c3ccc(F)cn3)nn2)ccc1F

>  <scaffold>  (19) 
pyridine

$$$$

     RDKit          3D

 27 29  0  0  0  0  0  0  0  0999 V2000
    0.0000   -0.0000    0.0000 C   0  0  0  0  0  0  0  0  0  0  0  0
    0.0000   -0.0000    1.3241 N   0  0  0  0  0  0  0  0  0  0  0  0
    1.1543    0.0000    1.9572 C   0  0  0  0  0  0  0  0  0  0  0  0
    1.1652    0.0000   -0.7508 C   0  0  0  0  0  0  0  0  0  0  0  0
    2.3642   -0.0589   -0.0578 C   0  0  0  0  0  0  0  0  0  0  0  0
    2.3635   -0.1145    1.3273 C   0  0  0  0  0  0  0  0  0  0  0  0
    3.6323   -0.2336    2.1219 C   0  0  0  0  0  0  0  0  0  0  0  0
    3.5088   -1.2866    3.1005 N   0  0  0  0  0  0  0  0  0  0  0  0
    3.8432   -1.1249    4.4114 C   0  0  0  0  0  0  0  0  0  0  0  0
    4.3235   -0.1525    4.9280 O   0  0  0  0  0  0  0  0  0  0  0  0
    3.5565   -2.3007    5.0872 N   0  0  0  0  0  0  0  0  0  0  0  0
    2.9893   -3.2100    4.2332 C   0  0  0  0  0  0  0  0  0  0  0  0
    2.5939   -4.3041    4.5593 O   0  0  0  0  0  0  0  0  0  0  0  0
    3.7107   -2.5215    6.4963 C   0  0  0  0  0  0  0  0  0  0  0  0
    2.9410   -2.6108    2.8662 C   0  0  2  0  0  0  0  0  0  0  0  0
    3.6179   -3.4576    1.7772 C   0  0  0  0  0  0  0  0  0  0  0  0
    5.0702   -3.5209    2.0341 C   0  0  0  0  0  0  0  0  0  0  0  0
    5.8400   -2.5460    2.4471 N   0  0  0  0  0  0  0  0  0  0  0  0
    5.8544   -4.6721    1.8735 C   0  0  0  0  0  0  0  0  0  0  0  0
    7.1099   -3.0100    2.6162 O   0  0  0  0  0  0  0  0  0  0  0  0
    7.0857   -4.2105    2.2861 C   0  0  0  0  0  0  0  0  0  0  0  0
    8.3812   -4.9212    2.4311 C   0  0  0  0  0  0  0  0  0  0  0  0
    8.6783   -5.2993    3.8813 C   0  0  0  0  0  0  0  0  0  0  0  0
   10.0272   -5.9854    4.0920 C   0  0  0  0  0  0  0  0  0  0  0  0
   10.2516   -6.3912    5.5478 C   0  0  0  0  0  0  0  0  0  0  0  0
   11.6107   -7.0330    5.8219 C   0  0  0  0  0  0  0  0  0  0  0  0
   11.7633   -7.4692    7.2782 C   0  0  0  0  0  0  0  0  0  0  0  0
  2  1  2  0
  3  2  1  0
  4  1  1  0
  5  4  2  0
  6  5  1  0
  6  3  2  0
  7  6  1  0
  8  7  1  0
  9  8  1  0
 10  9  2  0
 11  9  1  0
 12 11  1  0
 13 12  2  0
 14 11  1  0
 15 12  1  0
 15  8  1  0
 15 16  1  6
 17 16  1  0
 18 17  2  0
 19 17  1  0
 20 18  1  0
 21 20  1  0
 21 19  2  0
 22 21  1  0
 23 22  1  0
 24 23  1  0
 25 24  1  0
 26 25  1  0
 27 26  1  0
M  END
>  <SMILES>  (20) 
CCCCCCc1cc(CC2C(=O)N(C)C(=O)N2Cc2cccnc2)no1

>  <scaffold>  (20) 
pyridine

$$$$

     RDKit          3D

 25 26  0  0  0  0  0  0  0  0999 V2000
   -0.0000    0.0000   -0.0000 C   0  0  0  0  0  0  0  0  0  0  0  0
   -0.0000    0.0000    1.3941 C   0  0  0  0  0  0  0  0  0  0  0  0
    1.1974    0.0000    2.0767 C   0  0  0  0  0  0  0  0  0  0  0  0
    1.2391   -0.0000   -0.6390 C   0  0  0  0  0  0  0  0  0  0  0  0
    2.4092   -0.0000   -0.0356 N   0  0  0  0  0  0  0  0  0  0  0  0
    2.4092    0.0000    1.2961 C   0  0  0  0  0  0  0  0  0  0  0  0
   -1.1652   -0.0000   -0.7508 N   0  0  0  0  0  0  0  0  0  0  0  0
   -2.4685   -0.0000   -0.3534 C   0  0  0  0  0  0  0  0  0  0  0  0
   -2.8040    0.0000    0.8290 O   0  0  0  0  0  0  0  0  0  0  0  0
    3.6441    0.0519    1.7919 O   0  0  0  0  0  0  0  0  0  0  0  0
    3.7791    0.0026    3.1947 C   0  0  0  0  0  0  0  0  0  0  0  0
   -3.4692   -0.0584   -1.4372 C   0  0  0  0  0  0  0  0  0  0  0  0
   -4.7996   -0.1103   -1.0812 C   0  0  0  0  0  0  0  0  0  0  0  0
   -3.1473   -0.0521   -2.8268 C   0  0  0  0  0  0  0  0  0  0  0  0
   -5.7988   -0.2186   -1.9781 N   0  0  0  0  0  0  0  0  0  0  0  0
   -4.1460   -0.1617   -3.7241 C   0  0  0  0  0  0  0  0  0  0  0  0
   -5.5550   -0.3507   -3.3607 C   0  0  0  0  0  0  0  0  0  0  0  0
   -6.4837   -0.4892   -4.1320 O   0  0  0  0  0  0  0  0  0  0  0  0
   -7.1815   -0.3215   -1.5501 C   0  0  0  0  0  0  0  0  0  0  0  0
   -7.5933   -1.7520   -1.2056 C   0  0  0  0  0  0  0  0  0  0  0  0
   -9.0567   -1.9227   -0.8012 C   0  0  0  0  0  0  0  0  0  0  0  0
   -9.4011   -3.3515   -0.4169 C   0  0  0  0  0  0  0  0  0  0  0  0
  -11.1518   -3.6323    0.0136 S   0  0  0  0  0  0  0  0  0  0  0  0
  -11.2143   -2.7844    1.6162 C   0  0  0  0  0  0  0  0  0  0  0  0
  -10.4880   -3.5053    2.7507 C   0  0  0  0  0  0  0  0  0  0  0  0
  2  1  2  0
  3  2  1  0
  4  1  1  0
  5  4  2  0
  6  5  1  0
  6  3  2  0
  7  1  1  0
  8  7  1  0
  9  8  2  0
 10  6  1  0
 11 10  1  0
 12  8  1  0
 13 12  2  0
 14 12  1  0
 15 13  1  0
 16 14  2  0
 17 15  1  0
 17 16  1  0
 18 17  2  0
 19 15  1  0
 20 19  1  0
 21 20  1  0
 22 21  1  0
 23 22  1  0
 24 23  1  0
 25 24  1  0
M  END
>  <SMILES>  (21) 
CCSCCCCn1cc(C(=O)Nc2ccc(OC)nc2)ccc1=O

>  <scaffold>  (21) 
pyridine

$$$$

     RDKit          3D

 26 28  0  0  0  0  0  0  0  0999 V2000
   -0.0000   -0.0000    0.0000 C   0  0  0  0  0  0  0  0  0  0  0  0
   -0.0000    0.0000    1.3165 N   0  0  0  0  0  0  0  0  0  0  0  0
    1.1569   -0.0000    1.9760 C   0  0  0  0  0  0  0  0  0  0  0  0
    1.1719    0.0000   -0.7551 C   0  0  0  0  0  0  0  0  0  0  0  0
    2.4181   -0.0000   -0.1125 C   0  0  0  0  0  0  0  0  0  0  0  0
    2.4181   -0.0000    1.2816 C   0  0  0  0  0  0  0  0  0  0  0  0
    3.7008    0.0539   -0.8750 C   0  0  0  0  0  0  0  0  0  0  0  0
    1.1080    0.0489    3.3291 N   0  0  0  0  0  0  0  0  0  0  0  0
    3.6255   -0.0500    1.9605 O   0  0  0  0  0  0  0  0  0  0  0  0
    4.1442    1.2300    2.3171 C   0  0  0  0  0  0  0  0  0  0  0  0
    5.4768    1.1242    3.0016 C   0  0  0  0  0  0  0  0  0  0  0  0
    6.3427    0.0895    2.6839 C   0  0  0  0  0  0  0  0  0  0  0  0
    5.8839    2.0940    3.9167 C   0  0  0  0  0  0  0  0  0  0  0  0
    7.5956    0.0609    3.3127 C   0  0  0  0  0  0  0  0  0  0  0  0
    7.1241    2.0650    4.5352 C   0  0  0  0  0  0  0  0  0  0  0  0
    8.0024    1.0661    4.1890 C   0  0  0  0  0  0  0  0  0  0  0  0
    8.3656   -1.0540    3.0608 N   0  0  0  0  0  0  0  0  0  0  0  0
    9.7903   -1.0451    3.2891 C   0  0  0  0  0  0  0  0  0  0  0  0
   10.5429   -0.1530    2.3303 C   0  0  0  0  0  0  0  0  0  0  0  0
   11.2986    0.9546    2.7402 C   0  0  0  0  0  0  0  0  0  0  0  0
   10.5874   -0.4136    0.9615 C   0  0  0  0  0  0  0  0  0  0  0  0
   11.9038    1.7368    1.8598 N   0  0  0  0  0  0  0  0  0  0  0  0
   11.2187    0.3975    0.0433 C   0  0  0  0  0  0  0  0  0  0  0  0
   11.8205    1.5053    0.5510 C   0  0  0  0  0  0  0  0  0  0  0  0
   12.4961    2.3041   -0.3097 N   0  0  0  0  0  0  0  0  0  0  0  0
   13.0542    3.5880    0.0393 C   0  0  0  0  0  0  0  0  0  0  0  0
  2  1  2  0
  3  2  1  0
  4  1  1  0
  5  4  2  0
  6  5  1  0
  6  3  2  0
  7  5  1  0
  8  3  1  0
  9  6  1  0
 10  9  1  0
 11 10  1  0
 12 11  2  0
 13 11  1  0
 14 12  1  0
 15 13  2  0
 16 15  1  0
 16 14  2  0
 17 14  1  0
 18 17  1  0
 19 18  1  0
 20 19  2  0
 21 19  1  0
 22 20  1  0
 23 21  2  0
 24 23  1  0
 24 22  2  0
 25 24  1  0
 26 25  1  0
M  END
>  <SMILES>  (22) 
CNc1ccc(CNc2cccc(COc3c(C)ccnc3N)c2)cn1

>  <scaffold>  (22) 
pyridine

$$$$

     RDKit          3D

 35 37  0  0  0  0  0  0  0  0999 V2000
    0.0000    0.0000   -0.0000 C   0  0  0  0  0  0  0  0  0  0  0  0
    0.0000    0.0000    1.3862 C   0  0  0  0  0  0  0  0  0  0  0  0
    1.1878   -0.0000    2.1160 C   0  0  0  0  0  0  0  0  0  0  0  0
    1.2391   -0.0000   -0.6390 C   0  0  0  0  0  0  0  0  0  0  0  0
    2.3521    0.0000    0.0782 N   0  0  0  0  0  0  0  0  0  0  0  0
    2.3521   -0.0000    1.4099 C   0  0  0  0  0  0  0  0  0  0  0  0
    1.0565   -0.0544    3.5029 N   0  0  0  0  0  0  0  0  0  0  0  0
    3.5226    0.0492    2.1057 N   0  0  0  0  0  0  0  0  0  0  0  0
    1.3638   -0.0516   -1.9562 O   0  0  0  0  0  0  0  0  0  0  0  0
    4.6891    0.0408    1.4322 N   0  0  0  0  0  0  0  0  0  0  0  0
    5.7623    0.1343    2.1223 C   0  0  0  0  0  0  0  0  0  0  0  0
    2.6597    0.0024   -2.5690 C   0  0  0  0  0  0  0  0  0  0  0  0
    3.2123    1.3989   -2.5715 C   0  0  0  0  0  0  0  0  0  0  0  0
    4.1834    1.8231   -1.6903 C   0  0  0  0  0  0  0  0  0  0  0  0
    2.7004    2.3422   -3.4362 C   0  0  0  0  0  0  0  0  0  0  0  0
    4.6247    3.1287   -1.6983 C   0  0  0  0  0  0  0  0  0  0  0  0
    3.1415    3.6480   -3.4402 C   0  0  0  0  0  0  0  0  0  0  0  0
    4.1115    4.0772   -2.5944 C   0  0  0  0  0  0  0  0  0  0  0  0
    4.5461    5.3500   -2.6709 N   0  0  0  0  0  0  0  0  0  0  0  0
    5.5589    5.8597   -1.7653 C   0  0  0  0  0  0  0  0  0  0  0  0
    5.1155    6.0967   -0.3410 C   0  0  0  0  0  0  0  0  0  0  0  0
    5.7067    5.4627    0.7508 C   0  0  0  0  0  0  0  0  0  0  0  0
    4.0728    6.9716   -0.0395 C   0  0  0  0  0  0  0  0  0  0  0  0
    5.3885    5.6716    1.9954 N   0  0  0  0  0  0  0  0  0  0  0  0
    3.7358    7.1931    1.2784 C   0  0  0  0  0  0  0  0  0  0  0  0
    4.4266    6.5565    2.2508 C   0  0  0  0  0  0  0  0  0  0  0  0
    4.2210    6.7263    3.5791 O   0  0  0  0  0  0  0  0  0  0  0  0
    3.1313    7.5195    3.9940 C   0  0  0  0  0  0  0  0  0  0  0  0
    1.7877    6.8353    3.8089 C   0  0  0  0  0  0  0  0  0  0  0  0
    0.6472    7.7126    4.3228 C   0  0  0  0  0  0  0  0  0  0  0  0
   -0.6668    7.0130    4.0675 C   0  0  0  0  0  0  0  0  0  0  0  0
   -1.8457    7.8756    4.5152 C   0  0  0  0  0  0  0  0  0  0  0  0
   -3.1485    7.1483    4.1862 C   0  0  0  0  0  0  0  0  0  0  0  0
   -4.2898    8.0241    4.7010 C   0  0  0  0  0  0  0  0  0  0  0  0
   -5.5600    7.2309    4.3980 C   0  0  0  0  0  0  0  0  0  0  0  0
  2  1  2  0
  3  2  1  0
  4  1  1  0
  5  4  2  0
  6  5  1  0
  6  3  2  0
  7  3  1  0
  8  6  1  0
  9  4  1  0
 10  8  1  0
 11 10  2  0
 12  9  1  0
 13 12  1  0
 14 13  2  0
 15 13  1  0
 16 14  1  0
 17 15  2  0
 18 17  1  0
 18 16  2  0
 19 18  1  0
 20 19  1  0
 21 20  1  0
 22 21  2  0
 23 21  1  0
 24 22  1  0
 25 23  2  0
 26 24  2  0
 26 25  1  0
 27 26  1  0
 28 27  2  0
 29 28  1  0
 30 29  1  0
 31 30  1  0
 32 31  1  0
 33 32  1  0
 34 33  1  0
 35 34  1  0
M  CHG  2  11  -1  27   1
M  END
>  <SMILES>  (23) 
[CH-]=NNc1nc(OCc2ccc(NCc3ccc([O+]=CCCCCCCC)nc3)cc2)ccc1N

>  <scaffold>  (23) 
pyridine

$$$$

     RDKit          3D

 22 24  0  0  0  0  0  0  0  0999 V2000
    0.0000   -0.0000   -0.0000 C   0  0  0  0  0  0  0  0  0  0  0  0
    0.0000    0.0000    1.3862 C   0  0  0  0  0  0  0  0  0  0  0  0
    1.2154   -0.0000    2.0527 C   0  0  0  0  0  0  0  0  0  0  0  0
    1.2320    0.0000   -0.6353 C   0  0  0  0  0  0  0  0  0  0  0  0
    2.4021   -0.0000   -0.0319 N   0  0  0  0  0  0  0  0  0  0  0  0
    2.4021   -0.0000    1.2998 C   0  0  0  0  0  0  0  0  0  0  0  0
    3.7369    0.0533    1.9282 C   0  0  0  0  0  0  0  0  0  0  0  0
    4.8204    0.1499    1.1469 N   0  0  0  0  0  0  0  0  0  0  0  0
    3.7871    0.0069    3.2658 N   0  0  0  0  0  0  0  0  0  0  0  0
    6.0252    0.1529    1.6588 C   0  0  0  0  0  0  0  0  0  0  0  0
    4.9918    0.0097    3.7779 C   0  0  0  0  0  0  0  0  0  0  0  0
    6.1701   -0.0048    3.0283 C   0  0  0  0  0  0  0  0  0  0  0  0
    7.4153   -0.0430    3.4987 F   0  0  0  0  0  0  0  0  0  0  0  0
    4.9932    0.0111    5.5714 S   0  0  0  0  0  6  0  0  0  0  0  0
    5.5863    1.2558    6.0239 O   0  0  0  0  0  0  0  0  0  0  0  0
    5.6683   -1.1942    5.9875 O   0  0  0  0  0  0  0  0  0  0  0  0
    3.3155    0.0747    6.1420 C   0  0  0  0  0  0  0  0  0  0  0  0
    2.6173   -1.1213    6.2012 C   0  0  0  0  0  0  0  0  0  0  0  0
    2.7202    1.2971    6.3127 C   0  0  0  0  0  0  0  0  0  0  0  0
    1.3032   -1.0160    6.6033 C   0  0  0  0  0  0  0  0  0  0  0  0
    1.3956    1.3954    6.7091 C   0  0  0  0  0  0  0  0  0  0  0  0
    0.7267    0.2118    6.9254 C   0  0  0  0  0  0  0  0  0  0  0  0
  2  1  2  0
  3  2  1  0
  4  1  1  0
  5  4  2  0
  6  5  1  0
  6  3  2  0
  7  6  1  0
  8  7  2  0
  9  7  1  0
 10  8  1  0
 11  9  2  0
 12 11  1  0
 12 10  2  0
 13 12  1  0
 14 11  1  0
 15 14  2  0
 16 14  2  0
 17 14  1  0
 18 17  2  0
 19 17  1  0
 20 18  1  0
 21 19  2  0
 22 21  1  0
 22 20  2  0
M  END
>  <SMILES>  (24) 
O=S(=O)(c1ccccc1)c1nc(-c2ccccn2)ncc1F

>  <scaffold>  (24) 
pyridine

$$$$

     RDKit          3D

 30 32  0  0  0  0  0  0  0  0999 V2000
   -0.0000   -0.0000    0.0000 C   0  0  0  0  0  0  0  0  0  0  0  0
   -0.0000   -0.0000    1.3241 N   0  0  0  0  0  0  0  0  0  0  0  0
    1.1543   -0.0000    1.9572 C   0  0  0  0  0  0  0  0  0  0  0  0
    1.1719   -0.0000   -0.7551 C   0  0  0  0  0  0  0  0  0  0  0  0
    2.3709   -0.0589   -0.0621 C   0  0  0  0  0  0  0  0  0  0  0  0
    2.3702   -0.1145    1.3230 C   0  0  0  0  0  0  0  0  0  0  0  0
   -1.2586   -0.0618   -0.5776 N   0  0  0  0  0  0  0  0  0  0  0  0
   -1.5850   -0.6584   -1.7763 C   0  0  0  0  0  0  0  0  0  0  0  0
   -0.7724   -1.1712   -2.5201 O   0  0  0  0  0  0  0  0  0  0  0  0
   -2.9015   -0.6272   -2.0946 N   0  0  0  0  0  0  0  0  0  0  0  0
   -3.4486   -1.0411   -3.3639 C   0  0  0  0  0  0  0  0  0  0  0  0
   -3.8682    0.1505   -4.1601 C   0  0  0  0  0  0  0  0  0  0  0  0
   -3.0847    1.1598   -4.6333 C   0  0  0  0  0  0  0  0  0  0  0  0
   -5.5397    0.3500   -4.5716 S   0  0  0  0  0  0  0  0  0  0  0  0
   -3.8064    2.1595   -5.3009 C   0  0  0  0  0  0  0  0  0  0  0  0
   -5.1689    1.8394   -5.3327 C   0  0  0  0  0  0  0  0  0  0  0  0
   -6.2803    2.6602   -5.9215 C   0  0  0  0  0  0  0  0  0  0  0  0
   -5.7834    3.4410   -6.9749 O   0  0  0  0  0  0  0  0  0  0  0  0
   -5.4078    2.8194   -8.1185 C   0  0  0  0  0  0  0  0  0  0  0  0
   -5.5153    1.4592   -8.4043 C   0  0  0  0  0  0  0  0  0  0  0  0
   -4.8740    3.6310   -9.1185 C   0  0  0  0  0  0  0  0  0  0  0  0
   -5.1425    0.9490   -9.6381 C   0  0  0  0  0  0  0  0  0  0  0  0
   -4.5096    3.1291  -10.3318 C   0  0  0  0  0  0  0  0  0  0  0  0
   -4.6474    1.7711  -10.6383 C   0  0  0  0  0  0  0  0  0  0  0  0
   -4.1049    1.1792  -12.1852 Cl  0  0  0  0  0  0  0  0  0  0  0  0
   -3.9428    3.8693  -11.3147 O   0  0  0  0  0  0  0  0  0  0  0  0
   -3.7393    5.2734  -11.1669 C   0  0  0  0  0  0  0  0  0  0  0  0
   -5.0459    6.0467  -11.3380 C   0  0  0  0  0  0  0  0  0  0  0  0
   -5.6197    5.8899  -12.7453 C   0  0  0  0  0  0  0  0  0  0  0  0
   -6.8996    6.6892  -12.9849 C   0  0  0  0  0  0  0  0  0  0  0  0
  2  1  2  0
  3  2  1  0
  4  1  1  0
  5  4  2  0
  6  5  1  0
  6  3  2  0
  7  1  1  0
  8  7  1  0
  9  8  2  0
 10  8  1  0
 11 10  1  0
 12 11  1  0
 13 12  2  0
 14 12  1  0
 15 13  1  0
 16 14  1  0
 16 15  2  0
 17 16  1  0
 18 17  1  0
 19 18  1  0
 20 19  2  0
 21 19  1  0
 22 20  1  0
 23 21  2  0
 24 23  1  0
 24 22  2  0
 25 24  1  0
 26 23  1  0
 27 26  1  0
 28 27  1  0
 29 28  1  0
 30 29  1  0
M  END
>  <SMILES>  (25) 
CCCCOc1cc(OCc2ccc(CNC(=O)Nc3ccccn3)s2)ccc1Cl

>  <scaffold>  (25) 
pyridine

$$$$

     RDKit          3D

 22 23  0  0  0  0  0  0  0  0999 V2000
   -0.0000   -0.0000    0.0000 C   0  0  0  0  0  0  0  0  0  0  0  0
   -0.0000   -0.0000    1.3941 C   0  0  0  0  0  0  0  0  0  0  0  0
    1.2192   -0.0000    2.0369 C   0  0  0  0  0  0  0  0  0  0  0  0
    1.2320   -0.0000   -0.6353 C   0  0  0  0  0  0  0  0  0  0  0  0
    2.4021    0.0000   -0.0319 N   0  0  0  0  0  0  0  0  0  0  0  0
    2.4021   -0.0000    1.2998 C   0  0  0  0  0  0  0  0  0  0  0  0
   -1.4567   -0.0000   -0.9387 Cl  0  0  0  0  0  0  0  0  0  0  0  0
    1.2831   -0.0640    3.8077 S   0  0  0  0  0  0  0  0  0  0  0  0
    3.6270   -0.0489    1.8765 N   0  0  0  0  0  0  0  0  0  0  0  0
   -0.0937    0.9568    4.3360 C   0  0  0  0  0  0  0  0  0  0  0  0
   -0.3497    2.1588    3.6947 C   0  0  0  0  0  0  0  0  0  0  0  0
   -0.9032    0.5348    5.3897 C   0  0  0  0  0  0  0  0  0  0  0  0
   -1.3939    2.9367    4.1700 C   0  0  0  0  0  0  0  0  0  0  0  0
   -1.9415    1.3082    5.8623 C   0  0  0  0  0  0  0  0  0  0  0  0
   -2.1334    2.5749    5.2853 C   0  0  0  0  0  0  0  0  0  0  0  0
   -3.2828    3.4205    5.7255 C   0  0  0  0  0  0  0  0  0  0  0  0
   -3.9995    4.0025    4.9356 O   0  0  0  0  0  0  0  0  0  0  0  0
   -3.4741    3.5530    7.0601 N   0  0  0  0  0  0  0  0  0  0  0  0
   -4.5557    4.2764    7.6835 C   0  0  0  0  0  0  0  0  0  0  0  0
   -5.4142    3.3708    8.5498 C   0  0  0  0  0  0  0  0  0  0  0  0
   -5.0535    2.2884    8.9258 O   0  0  0  0  0  0  0  0  0  0  0  0
   -6.5911    3.9066    8.8679 O   0  0  0  0  0  0  0  0  0  0  0  0
  2  1  2  0
  3  2  1  0
  4  1  1  0
  5  4  2  0
  6  5  1  0
  6  3  2  0
  7  1  1  0
  8  3  1  0
  9  6  1  0
 10  8  2  3
 11 10  1  0
 12 10  1  0
 13 11  2  0
 14 12  2  0
 15 13  1  0
 15 14  1  0
 16 15  2  3
 17 16  1  0
 18 16  1  0
 19 18  1  0
 20 19  1  0
 21 20  2  0
 22 20  1  0
M  CHG  2   8   1  17  -1
M  END
>  <SMILES>  (26) 
Nc1ncc(Cl)cc1[S+]=C1C=CC(=C([O-])NCC(=O)O)C=C1

>  <scaffold>  (26) 
pyridine

$$$$

     RDKit          3D

 31 33  0  0  0  0  0  0  0  0999 V2000
    0.0000   -0.0000    0.0000 C   0  0  0  0  0  0  0  0  0  0  0  0
    0.0000    0.0000    1.3782 C   0  0  0  0  0  0  0  0  0  0  0  0
    1.2223    0.0000    2.0487 C   0  0  0  0  0  0  0  0  0  0  0  0
    1.2391    0.0000   -0.6390 C   0  0  0  0  0  0  0  0  0  0  0  0
    2.4092    0.0000   -0.0356 N   0  0  0  0  0  0  0  0  0  0  0  0
    2.4092   -0.0000    1.2961 C   0  0  0  0  0  0  0  0  0  0  0  0
    3.6201   -0.0483    1.8663 N   0  0  0  0  0  0  0  0  0  0  0  0
    1.2863    0.0640    3.8195 S   0  0  0  0  0  6  0  0  0  0  0  0
    2.3236   -0.7769    4.3659 O   0  0  0  0  0  0  0  0  0  0  0  0
   -0.0245   -0.1072    4.3554 O   0  0  0  0  0  0  0  0  0  0  0  0
    1.7787    1.6700    4.1025 N   0  0  0  0  0  0  0  0  0  0  0  0
    2.9257    2.0978    4.7356 C   0  0  0  0  0  0  0  0  0  0  0  0
    3.5619    3.1283    4.2194 N   0  0  0  0  0  0  0  0  0  0  0  0
    3.3352    1.4022    5.8723 C   0  0  0  0  0  0  0  0  0  0  0  0
    4.6355    3.6001    4.8178 C   0  0  0  0  0  0  0  0  0  0  0  0
    4.4653    1.8989    6.5029 C   0  0  0  0  0  0  0  0  0  0  0  0
    5.1424    3.0631    5.9815 C   0  0  0  0  0  0  0  0  0  0  0  0
    4.8650    1.2942    7.6200 F   0  0  0  0  0  0  0  0  0  0  0  0
    6.2352    3.6747    6.5379 O   0  0  0  0  0  0  0  0  0  0  0  0
    7.5000    3.1745    6.1081 C   0  0  0  0  0  0  0  0  0  0  0  0
    8.6247    3.8996    6.8455 C   0  0  0  0  0  0  0  0  0  0  0  0
   10.0037    3.3014    6.5267 C   0  0  0  0  0  0  0  0  0  0  0  0
   11.0786    4.0203    7.3240 C   0  0  0  0  0  0  0  0  0  0  0  0
   11.7453    5.1063    6.7785 C   0  0  0  0  0  0  0  0  0  0  0  0
   11.3512    3.6546    8.6329 C   0  0  0  0  0  0  0  0  0  0  0  0
   12.6919    5.8196    7.4818 C   0  0  0  0  0  0  0  0  0  0  0  0
   12.3008    4.3678    9.3324 C   0  0  0  0  0  0  0  0  0  0  0  0
   13.0126    5.4654    8.7830 C   0  0  0  0  0  0  0  0  0  0  0  0
   13.9889    6.1692    9.4218 O   0  0  0  0  0  0  0  0  0  0  0  0
   14.3130    5.8804   10.7550 C   0  0  0  0  0  0  0  0  0  0  0  0
   13.2736    6.4439   11.7227 C   0  0  0  0  0  0  0  0  0  0  0  0
  2  1  2  0
  3  2  1  0
  4  1  1  0
  5  4  2  0
  6  5  1  0
  6  3  2  0
  7  6  1  0
  8  3  1  0
  9  8  2  0
 10  8  2  0
 11  8  1  0
 12 11  1  0
 13 12  2  0
 14 12  1  0
 15 13  1  0
 16 14  2  0
 17 16  1  0
 17 15  2  0
 18 16  1  0
 19 17  1  0
 20 19  1  0
 21 20  1  0
 22 21  1  0
 23 22  1  0
 24 23  2  0
 25 23  1  0
 26 24  1  0
 27 25  2  0
 28 27  1  0
 28 26  2  0
 29 28  1  0
 30 29  1  0
 31 30  1  0
M  END
>  <SMILES>  (27) 
CCOc1ccc(CCCOc2cnc(NS(=O)(=O)c3cccnc3N)cc2F)cc1

>  <scaffold>  (27) 
pyridine

$$$$

     RDKit          3D

 27 29  0  0  0  0  0  0  0  0999 V2000
    0.0000   -0.0000    0.0000 C   0  0  0  0  0  0  0  0  0  0  0  0
   -0.0000    0.0000    1.3862 C   0  0  0  0  0  0  0  0  0  0  0  0
    1.2084    0.0000    2.0489 C   0  0  0  0  0  0  0  0  0  0  0  0
    1.2320    0.0000   -0.6353 C   0  0  0  0  0  0  0  0  0  0  0  0
    2.4021    0.0000   -0.0319 N   0  0  0  0  0  0  0  0  0  0  0  0
    2.4021    0.0000    1.2998 C   0  0  0  0  0  0  0  0  0  0  0  0
    3.6341   -0.0492    1.8798 N   0  0  0  0  0  0  0  0  0  0  0  0
    4.7590   -0.0940    1.1543 N   0  0  0  0  0  0  0  0  0  0  0  0
    5.9320   -0.1870    1.6564 C   0  0  0  0  0  0  0  0  0  0  0  0
    7.0114   -0.2778    0.7033 C   0  0  0  0  0  0  0  0  0  0  0  0
    8.3336   -0.4375    0.9053 C   0  0  0  0  0  0  0  0  0  0  0  0
    6.1444   -0.1880    3.1345 C   0  0  0  0  0  0  0  0  0  0  0  0
    9.3836   -0.5761   -0.0989 C   0  0  0  0  0  0  0  0  0  0  0  0
   10.7047   -0.6784    0.3081 C   0  0  0  0  0  0  0  0  0  0  0  0
    9.1135   -0.6219   -1.4658 C   0  0  0  0  0  0  0  0  0  0  0  0
   11.7131   -0.8580   -0.5905 C   0  0  0  0  0  0  0  0  0  0  0  0
   10.1456   -0.8053   -2.3848 C   0  0  0  0  0  0  0  0  0  0  0  0
   11.4556   -0.9470   -1.9659 C   0  0  0  0  0  0  0  0  0  0  0  0
   12.4944   -1.0773   -2.8257 N   0  0  0  0  0  0  0  0  0  0  0  0
   12.3757   -1.3344   -4.2405 C   0  0  0  0  0  0  0  0  0  0  0  0
   13.3582   -2.3829   -4.6470 C   0  0  0  0  0  0  0  0  0  0  0  0
   14.5348   -2.2087   -5.2955 C   0  0  0  0  0  0  0  0  0  0  0  0
   13.0845   -4.0568   -4.2458 S   0  0  0  0  0  0  0  0  0  0  0  0
   15.2550   -3.4164   -5.4799 C   0  0  0  0  0  0  0  0  0  0  0  0
   14.5871   -4.5067   -4.9591 C   0  0  0  0  0  0  0  0  0  0  0  0
   16.5418   -3.4509   -6.2198 C   0  0  0  0  0  0  0  0  0  0  0  0
   16.3516   -3.2617   -7.7151 C   0  0  0  0  0  0  0  0  0  0  0  0
  2  1  2  0
  3  2  1  0
  4  1  1  0
  5  4  2  0
  6  5  1  0
  6  3  2  0
  7  6  1  0
  8  7  1  0
  9  8  2  0
 10  9  1  0
 11 10  2  0
 12  9  1  0
 13 11  1  0
 14 13  2  0
 15 13  1  0
 16 14  1  0
 17 15  2  0
 18 17  1  0
 18 16  2  0
 19 18  1  0
 20 19  1  0
 21 20  1  0
 22 21  2  0
 23 21  1  0
 24 22  1  0
 25 24  2  0
 25 23  1  0
 26 24  1  0
 27 26  1  0
M  END
>  <SMILES>  (28) 
CCc1csc(CNc2ccc(C=CC(C)=NNc3ccccn3)cc2)c1

>  <scaffold>  (28) 
pyridine

$$$$

     RDKit          3D

 23 24  0  0  0  0  0  0  0  0999 V2000
   -0.0000   -0.0000    0.0000 C   0  0  0  0  0  0  0  0  0  0  0  0
   -0.0000   -0.0000    1.3241 N   0  0  0  0  0  0  0  0  0  0  0  0
    1.1543    0.0000    1.9572 C   0  0  0  0  0  0  0  0  0  0  0  0
    1.1652    0.0000   -0.7508 C   0  0  0  0  0  0  0  0  0  0  0  0
    2.3901    0.0000   -0.1191 C   0  0  0  0  0  0  0  0  0  0  0  0
    2.3901    0.0000    1.2750 C   0  0  0  0  0  0  0  0  0  0  0  0
    3.5907   -0.0497    1.9500 N   0  0  0  0  0  0  0  0  0  0  0  0
    4.7801   -0.0990    1.3362 N   0  0  0  0  0  0  0  0  0  0  0  0
    5.9073   -0.1916    1.9184 C   0  0  0  0  0  0  0  0  0  0  0  0
    7.1445   -0.1794    1.1287 C   0  0  0  0  0  0  0  0  0  0  0  0
    7.0350   -0.4752   -0.2293 C   0  0  0  0  0  0  0  0  0  0  0  0
    8.3864    0.0737    1.7282 C   0  0  0  0  0  0  0  0  0  0  0  0
    8.1625   -0.4276   -1.0205 C   0  0  0  0  0  0  0  0  0  0  0  0
    9.4955    0.1227    0.9516 C   0  0  0  0  0  0  0  0  0  0  0  0
    9.4209   -0.0982   -0.5415 C   0  0  0  0  0  0  0  0  0  0  0  0
   10.5771    0.0320   -1.2202 O   0  0  0  0  0  0  0  0  0  0  0  0
   10.5300   -0.2569   -2.6080 C   0  0  0  0  0  0  0  0  0  0  0  0
   10.5314   -1.7578   -2.8935 C   0  0  0  0  0  0  0  0  0  0  0  0
   10.7073   -2.1227   -4.3667 C   0  0  2  0  0  0  0  0  0  0  0  0
    9.4885   -1.6494   -5.1572 C   0  0  0  0  0  0  0  0  0  0  0  0
   10.8438   -3.6301   -4.5749 C   0  0  0  0  0  0  0  0  0  0  0  0
   11.0769   -4.0437   -6.0271 C   0  0  0  0  0  0  0  0  0  0  0  0
   11.2597   -5.5448   -6.1725 C   0  0  0  0  0  0  0  0  0  0  0  0
  2  1  2  0
  3  2  1  0
  4  1  1  0
  5  4  2  0
  6  5  1  0
  6  3  2  0
  7  6  1  0
  8  7  1  0
  9  8  2  0
 10  9  1  0
 11 10  2  0
 12 10  1  0
 13 11  1  0
 14 12  2  0
 15 14  1  0
 15 13  2  0
 16 15  1  0
 17 16  1  0
 18 17  1  0
 19 18  1  0
 19 20  1  6
 21 19  1  0
 22 21  1  0
 23 22  1  0
M  END
>  <SMILES>  (29) 
CCCC(C)CCOc1ccc(C=NNc2cccnc2)cc1

>  <scaffold>  (29) 
pyridine

$$$$

     RDKit          3D

 20 21  0  0  0  0  0  0  0  0999 V2000
   -0.0000   -0.0000   -0.0000 C   0  0  0  0  0  0  0  0  0  0  0  0
   -0.0000    0.0000    1.3241 N   0  0  0  0  0  0  0  0  0  0  0  0
    1.1372    0.0000    1.9724 C   0  0  0  0  0  0  0  0  0  0  0  0
    1.1652   -0.0000   -0.7508 C   0  0  0  0  0  0  0  0  0  0  0  0
    2.3972   -0.0000   -0.1155 C   0  0  0  0  0  0  0  0  0  0  0  0
    2.3972    0.0000    1.2866 C   0  0  0  0  0  0  0  0  0  0  0  0
    3.5841   -0.0492    1.9540 N   0  0  0  0  0  0  0  0  0  0  0  0
    1.0743    0.0629    3.7130 S   0  0  0  0  0  0  0  0  0  0  0  0
    4.7667   -0.0981    1.3436 N   0  0  0  0  0  0  0  0  0  0  0  0
    5.8614   -0.1899    2.0135 C   0  0  0  0  0  0  0  0  0  0  0  0
   -0.7171    0.0405    3.9985 C   0  0  0  0  0  0  0  0  0  0  0  0
    7.1754   -0.1942    1.3977 C   0  0  0  0  0  0  0  0  0  0  0  0
    8.3251   -0.3449    2.1572 C   0  0  0  0  0  0  0  0  0  0  0  0
    7.3479   -0.0349    0.0154 C   0  0  0  0  0  0  0  0  0  0  0  0
    9.5807   -0.3064    1.6295 C   0  0  0  0  0  0  0  0  0  0  0  0
    8.5823    0.0024   -0.5030 C   0  0  0  0  0  0  0  0  0  0  0  0
    9.7445   -0.1029    0.2355 C   0  0  0  0  0  0  0  0  0  0  0  0
   10.9902   -0.0249   -0.2289 N   0  0  0  0  0  0  0  0  0  0  0  0
   11.3646    0.1206   -1.6061 C   0  0  0  0  0  0  0  0  0  0  0  0
   12.8768    0.3389   -1.6149 C   0  0  0  0  0  0  0  0  0  0  0  0
  2  1  2  0
  3  2  1  0
  4  1  1  0
  5  4  2  0
  6  5  1  0
  6  3  2  0
  7  6  1  0
  8  3  1  0
  9  7  1  0
 10  9  2  0
 11  8  1  0
 12 10  1  0
 13 12  2  0
 14 12  1  0
 15 13  1  0
 16 14  2  0
 17 16  1  0
 17 15  2  0
 18 17  1  0
 19 18  1  0
 20 19  1  0
M  END
>  <SMILES>  (30) 
CCNc1ccc(C=NNc2cccnc2SC)cc1

>  <scaffold>  (30) 
pyridine

$$$$

     RDKit          3D

 29 32  0  0  0  0  0  0  0  0999 V2000
   -0.0000    0.0000    0.0000 C   0  0  0  0  0  0  0  0  0  0  0  0
   -0.0000   -0.0000    1.3015 N   0  0  0  0  0  0  0  0  0  0  0  0
    1.1811   -0.0000    1.9493 C   0  0  0  0  0  0  0  0  0  0  0  0
    1.1854    0.0000   -0.7638 C   0  0  0  0  0  0  0  0  0  0  0  0
    2.4033   -0.0000   -0.1358 C   0  0  0  0  0  0  0  0  0  0  0  0
    2.4033    0.0000    1.2744 C   0  0  0  0  0  0  0  0  0  0  0  0
    3.5825    0.0547    2.0311 C   0  0  0  0  0  0  0  0  0  0  0  0
    3.5357    0.0033    3.3918 C   0  0  0  0  0  0  0  0  0  0  0  0
    2.3265   -0.1050    4.0933 C   0  0  0  0  0  0  0  0  0  0  0  0
    1.1405   -0.1633    3.4249 C   0  0  0  0  0  0  0  0  0  0  0  0
   -0.4504   -0.3688    4.2724 S   0  0  0  0  0  0  0  0  0  0  0  0
   -0.1261    0.2123    5.9713 C   0  0  0  0  0  0  0  0  0  0  0  0
    0.1987    1.6784    5.9990 C   0  0  0  0  0  0  0  0  0  0  0  0
    0.9099    2.1478    7.1125 C   0  0  0  0  0  0  0  0  0  0  0  0
   -0.2462    2.5693    5.0348 C   0  0  0  0  0  0  0  0  0  0  0  0
    1.1876    3.4945    7.2051 C   0  0  0  0  0  0  0  0  0  0  0  0
    0.0398    3.9304    5.1299 C   0  0  0  0  0  0  0  0  0  0  0  0
    0.8044    4.4292    6.2559 C   0  0  0  0  0  0  0  0  0  0  0  0
   -0.5214    4.6481    4.1272 O   0  0  0  0  0  0  0  0  0  0  0  0
   -0.1897    6.0221    4.0109 C   0  0  0  0  0  0  0  0  0  0  0  0
    1.1896    6.2290    3.3870 C   0  0  0  0  0  0  0  0  0  0  0  0
    1.2426    5.7007    1.9544 C   0  0  0  0  0  0  0  0  0  0  0  0
    2.6295    5.8783    1.4063 C   0  0  0  0  0  0  0  0  0  0  0  0
    3.5676    4.8813    1.6239 C   0  0  0  0  0  0  0  0  0  0  0  0
    2.9570    7.0189    0.6898 C   0  0  0  0  0  0  0  0  0  0  0  0
    4.8807    5.0239    1.1776 C   0  0  0  0  0  0  0  0  0  0  0  0
    4.2551    7.1603    0.2488 C   0  0  0  0  0  0  0  0  0  0  0  0
    5.2546    6.1998    0.5637 C   0  0  0  0  0  0  0  0  0  0  0  0
    5.7052    3.9435    1.4067 O   0  0  0  0  0  0  0  0  0  0  0  0
  2  1  2  0
  3  2  1  0
  4  1  1  0
  5  4  2  0
  6  5  1  0
  6  3  2  0
  7  6  1  0
  8  7  2  0
  9  8  1  0
 10  9  2  0
 10  3  1  0
 11 10  1  0
 12 11  1  0
 13 12  1  0
 14 13  2  0
 15 13  1  0
 16 14  1  0
 17 15  2  0
 18 17  1  0
 18 16  2  0
 19 17  1  0
 20 19  1  0
 21 20  1  0
 22 21  1  0
 23 22  1  0
 24 23  2  0
 25 23  1  0
 26 24  1  0
 27 25  2  0
 28 26  2  0
 28 27  1  0
 29 26  1  0
M  END
>  <SMILES>  (31) 
Oc1cccc(CCCOc2cccc(CSc3cccc4cccnc34)c2)c1

>  <scaffold>  (31) 
pyridine

$$$$

     RDKit          3D

 40 41  0  0  0  0  0  0  0  0999 V2000
    0.0007    0.0012   -0.0000 C   0  0  0  0  0  0  0  0  0  0  0  0
    0.0004   -0.0000    1.4022 C   0  0  0  0  0  0  0  0  0  0  0  0
    1.1775    0.0003    2.0848 C   0  0  0  0  0  0  0  0  0  0  0  0
    1.2667   -0.0625   -0.5840 C   0  0  0  0  0  0  0  0  0  0  0  0
    2.4137   -0.0509    0.0744 N   0  0  0  0  0  0  0  0  0  0  0  0
    2.3588    0.0017    1.3951 C   0  0  0  0  0  0  0  0  0  0  0  0
   -1.2265   -0.0011   -0.7904 C   0  0  0  0  0  0  0  0  0  0  0  0
   -1.0771   -0.4931   -1.9762 N   0  0  0  0  0  0  0  0  0  0  0  0
   -2.5210    0.5339   -0.2348 C   0  0  0  0  0  0  0  0  0  0  0  0
   -2.1019   -0.6247   -2.8207 N   0  0  0  0  0  0  0  0  0  0  0  0
   -1.8820   -1.1041   -4.1008 C   0  0  0  0  0  0  0  0  0  0  0  0
   -2.9663   -1.1853   -4.9642 C   0  0  0  0  0  0  0  0  0  0  0  0
   -0.6450   -1.5960   -4.5138 C   0  0  0  0  0  0  0  0  0  0  0  0
   -2.8040   -1.7151   -6.2373 C   0  0  0  0  0  0  0  0  0  0  0  0
   -0.4890   -2.1241   -5.7837 C   0  0  0  0  0  0  0  0  0  0  0  0
   -1.5447   -2.1225   -6.6719 C   0  0  0  0  0  0  0  0  0  0  0  0
   -3.9451   -1.7820   -6.9648 O   0  0  0  0  0  0  0  0  0  0  0  0
   -3.9017   -2.2545   -8.2934 C   0  0  0  0  0  0  0  0  0  0  0  0
   -3.3400   -1.1952   -9.2506 C   0  0  0  0  0  0  0  0  0  0  0  0
   -3.3384   -1.6342  -10.7136 C   0  0  0  0  0  0  0  0  0  0  0  0
   -2.8302   -0.5243  -11.6348 C   0  0  0  0  0  0  0  0  0  0  0  0
   -2.8485   -0.8967  -13.1157 C   0  0  0  0  0  0  0  0  0  0  0  0
   -2.3844    0.2644  -13.9947 C   0  0  0  0  0  0  0  0  0  0  0  0
   -2.3307   -0.0734  -15.4838 C   0  0  0  0  0  0  0  0  0  0  0  0
   -1.9144    1.1327  -16.3229 C   0  0  0  0  0  0  0  0  0  0  0  0
   -1.7930    0.8317  -17.8154 C   0  0  0  0  0  0  0  0  0  0  0  0
   -1.3196    2.0633  -18.6050 C   0  0  0  0  0  0  0  0  0  0  0  0
   -1.1288    1.7980  -20.0975 C   0  0  0  0  0  0  0  0  0  0  0  0
   -0.6072    3.0350  -20.8267 C   0  0  0  0  0  0  0  0  0  0  0  0
   -0.3479    2.8048  -22.3150 C   0  0  0  0  0  0  0  0  0  0  0  0
    0.1227    4.0903  -23.0109 C   0  0  0  0  0  0  0  0  0  0  0  0
    0.4485    3.9052  -24.4939 C   0  0  0  0  0  0  0  0  0  0  0  0
    0.9626    5.1975  -25.1224 C   0  0  0  0  0  0  0  0  0  0  0  0
    1.2212    4.9700  -26.6112 C   0  0  0  0  0  0  0  0  0  0  0  0
    1.7904    6.2195  -27.2791 C   0  0  0  0  0  0  0  0  0  0  0  0
    2.0808    5.9271  -28.7497 C   0  0  0  0  0  0  0  0  0  0  0  0
    2.5890    7.2160  -29.3808 C   0  0  0  0  0  0  0  0  0  0  0  0
    2.9161    6.8608  -30.8210 C   0  0  0  0  0  0  0  0  0  0  0  0
    3.3703    8.1901  -31.4201 C   0  0  0  0  0  0  0  0  0  0  0  0
    3.6650    7.8957  -32.9007 C   0  0  0  0  0  0  0  0  0  0  0  0
  2  1  2  0
  3  2  1  0
  4  1  1  0
  5  4  2  0
  6  5  1  0
  6  3  2  0
  7  1  1  0
  8  7  2  0
  9  7  1  0
 10  8  1  0
 11 10  1  0
 12 11  1  0
 13 11  2  0
 14 12  2  0
 15 13  1  0
 16 15  1  0
 16 14  1  0
 17 14  1  0
 18 17  1  0
 19 18  1  0
 20 19  1  0
 21 20  1  0
 22 21  1  0
 23 22  1  0
 24 23  1  0
 25 24  1  0
 26 25  1  0
 27 26  1  0
 28 27  1  0
 29 28  1  0
 30 29  1  0
 31 30  1  0
 32 31  1  0
 33 32  1  0
 34 33  1  0
 35 34  1  0
 36 35  1  0
 37 36  1  0
 38 37  1  0
 39 38  1  0
 40 39  1  0
M  END
>  <SMILES>  (32) 
CCCCCCCCCCCCCCCCCCCCCCCOC1=CC(NN=C(C)c2cccnc2)=CCC1

>  <scaffold>  (32) 
pyridine

$$$$

     RDKit          3D

 21 22  0  0  0  0  0  0  0  0999 V2000
   -0.0000    0.0000   -0.0000 C   0  0  0  0  0  0  0  0  0  0  0  0
   -0.0000    0.0000    1.3241 N   0  0  0  0  0  0  0  0  0  0  0  0
    1.1713    0.0000    1.9417 C   0  0  0  0  0  0  0  0  0  0  0  0
    1.1652    0.0000   -0.7508 C   0  0  0  0  0  0  0  0  0  0  0  0
    2.4043   -0.0000   -0.1119 C   0  0  0  0  0  0  0  0  0  0  0  0
    2.4043   -0.0000    1.2822 C   0  0  0  0  0  0  0  0  0  0  0  0
    3.6482    0.0547   -0.7564 N   0  0  0  0  0  0  0  0  0  0  0  0
    3.8323    0.0531   -2.0986 C   0  0  0  0  0  0  0  0  0  0  0  0
    3.0264   -0.0505   -3.0021 O   0  0  0  0  0  0  0  0  0  0  0  0
    5.1708    0.1695   -2.4060 N   0  0  0  0  0  0  0  0  0  0  0  0
    6.2117    0.3313   -1.5914 N   0  0  0  0  0  0  0  0  0  0  0  0
    7.4379    0.4810   -1.9244 C   0  0  0  0  0  0  0  0  0  0  0  0
    8.4697    0.7036   -0.9407 C   0  0  0  0  0  0  0  0  0  0  0  0
    9.8177    0.8300   -1.0937 C   0  0  0  0  0  0  0  0  0  0  0  0
    7.9688    0.7857    0.3407 N   0  0  0  0  0  0  0  0  0  0  0  0
   10.7298    1.0259    0.3785 S   0  0  0  0  0  0  0  0  0  0  0  0
    9.0088    0.9308    1.0715 C   0  0  0  0  0  0  0  0  0  0  0  0
   10.4894    0.7505   -2.4155 C   0  0  0  0  0  0  0  0  0  0  0  0
    8.7825    0.9837    2.3984 N   0  0  0  0  0  0  0  0  0  0  0  0
    7.5248    1.2200    3.0826 C   0  0  0  0  0  0  0  0  0  0  0  0
    7.2490    2.6975    3.2323 C   0  0  0  0  0  0  0  0  0  0  0  0
  2  1  2  0
  3  2  1  0
  4  1  1  0
  5  4  2  0
  6  5  1  0
  6  3  2  0
  7  5  1  0
  8  7  1  0
  9  8  2  0
 10  8  1  0
 11 10  1  0
 12 11  2  0
 13 12  1  0
 14 13  2  0
 15 13  1  0
 16 14  1  0
 17 16  1  0
 17 15  2  0
 18 14  1  0
 19 17  1  0
 20 19  1  0
 21 20  1  0
M  END
>  <SMILES>  (33) 
CCNc1nc(C=NNC(=O)Nc2ccncc2)c(C)s1

>  <scaffold>  (33) 
pyridine

$$$$

     RDKit          3D

 12 13  0  0  0  0  0  0  0  0999 V2000
    0.0000    0.0000   -0.0000 C   0  0  0  0  0  0  0  0  0  0  0  0
    0.0000    0.0000    1.3862 C   0  0  0  0  0  0  0  0  0  0  0  0
    1.2154   -0.0000    2.0527 C   0  0  0  0  0  0  0  0  0  0  0  0
    1.2320    0.0000   -0.6353 C   0  0  0  0  0  0  0  0  0  0  0  0
    2.4021    0.0000   -0.0319 N   0  0  0  0  0  0  0  0  0  0  0  0
    2.4021   -0.0000    1.2922 C   0  0  0  0  0  0  0  0  0  0  0  0
    3.7445   -0.0536    1.9242 C   0  0  0  0  0  0  0  0  0  0  0  0
    4.3384    1.0826    2.2552 N   0  0  0  0  0  0  0  0  0  0  0  0
    4.2494   -1.2414    2.1424 N   0  0  0  0  0  0  0  0  0  0  0  0
    5.5607    0.9886    2.7755 C   0  0  0  0  0  0  0  0  0  0  0  0
    5.4782   -1.3372    2.6667 C   0  0  0  0  0  0  0  0  0  0  0  0
    6.1879   -0.2211    3.0298 C   0  0  0  0  0  0  0  0  0  0  0  0
  2  1  2  0
  3  2  1  0
  4  1  1  0
  5  4  2  0
  6  5  1  0
  6  3  2  0
  7  6  1  0
  8  7  2  0
  9  7  1  0
 10  8  1  0
 11  9  2  0
 12 10  2  0
 12 11  1  0
M  END
>  <SMILES>  (34) 
c1ccc(-c2ncccn2)nc1

>  <scaffold>  (34) 
pyridine

$$$$

     RDKit          3D

 20 21  0  0  0  0  0  0  0  0999 V2000
    0.0000   -0.0000   -0.0000 C   0  0  0  0  0  0  0  0  0  0  0  0
    0.0000   -0.0000    1.3862 C   0  0  0  0  0  0  0  0  0  0  0  0
    1.2084   -0.0000    2.0489 C   0  0  0  0  0  0  0  0  0  0  0  0
    1.2320    0.0000   -0.6353 C   0  0  0  0  0  0  0  0  0  0  0  0
    2.4021   -0.0000   -0.0319 N   0  0  0  0  0  0  0  0  0  0  0  0
    2.4021    0.0000    1.2998 C   0  0  0  0  0  0  0  0  0  0  0  0
    3.6411   -0.0494    1.8831 N   0  0  0  0  0  0  0  0  0  0  0  0
    4.8036   -0.0958    1.2832 N   0  0  0  0  0  0  0  0  0  0  0  0
    5.9542   -0.0950    1.8755 C   0  0  0  0  0  0  0  0  0  0  0  0
    7.2038   -0.0954    1.1709 C   0  0  0  0  0  0  0  0  0  0  0  0
    7.1388   -0.1536   -0.1656 C   0  0  0  0  0  0  0  0  0  0  0  0
    5.8712   -0.0989    3.6165 Cl  0  0  0  0  0  0  0  0  0  0  0  0
    8.3601   -0.1048   -0.9166 C   0  0  0  0  0  0  0  0  0  0  0  0
    8.4930   -0.0970   -2.2884 C   0  0  0  0  0  0  0  0  0  0  0  0
    9.5975   -0.0020   -0.3554 O   0  0  0  0  0  0  0  0  0  0  0  0
    9.8811   -0.0978   -2.4861 C   0  0  0  0  0  0  0  0  0  0  0  0
   10.5245   -0.0335   -1.3110 C   0  0  0  0  0  0  0  0  0  0  0  0
   11.9705    0.0023   -0.9761 C   0  0  0  0  0  0  0  0  0  0  0  0
   12.5907   -1.3950   -1.1316 C   0  0  0  0  0  0  0  0  0  0  0  0
   14.0687   -1.4233   -0.7454 C   0  0  0  0  0  0  0  0  0  0  0  0
  2  1  2  0
  3  2  1  0
  4  1  1  0
  5  4  2  0
  6  5  1  0
  6  3  2  0
  7  6  1  0
  8  7  1  0
  9  8  2  0
 10  9  1  0
 11 10  2  0
 12  9  1  0
 13 11  1  0
 14 13  2  0
 15 13  1  0
 16 14  1  0
 17 16  2  0
 17 15  1  0
 18 17  1  0
 19 18  1  0
 20 19  1  0
M  END
>  <SMILES>  (35) 
CCCc1ccc(C=CC(Cl)=NNc2ccccn2)o1

>  <scaffold>  (35) 
pyridine

$$$$

     RDKit          3D

 23 25  0  0  0  0  0  0  0  0999 V2000
   -0.0000    0.0000    0.0000 C   0  0  0  0  0  0  0  0  0  0  0  0
    0.0000    0.0000    1.3862 C   0  0  0  0  0  0  0  0  0  0  0  0
    1.2154   -0.0000    2.0527 C   0  0  0  0  0  0  0  0  0  0  0  0
    1.2391   -0.0000   -0.6390 C   0  0  0  0  0  0  0  0  0  0  0  0
    2.3778   -0.0559    0.0193 N   0  0  0  0  0  0  0  0  0  0  0  0
    2.3772   -0.1153    1.3421 C   0  0  0  0  0  0  0  0  0  0  0  0
   -1.5076   -0.0741   -0.8715 Cl  0  0  0  0  0  0  0  0  0  0  0  0
    3.9041   -0.2496    2.1505 S   0  0  0  0  0  0  0  0  0  0  0  0
    4.9152   -0.4531    0.6832 C   0  0  0  0  0  0  0  0  0  0  0  0
    5.9489    0.4500    0.4904 C   0  0  0  0  0  0  0  0  0  0  0  0
    4.7407   -1.5458   -0.1648 C   0  0  0  0  0  0  0  0  0  0  0  0
    6.6627    0.2852   -0.6677 C   0  0  0  0  0  0  0  0  0  0  0  0
    5.4552   -1.7173   -1.3215 C   0  0  0  0  0  0  0  0  0  0  0  0
    6.4632   -0.6781   -1.6556 C   0  0  0  0  0  0  0  0  0  0  0  0
    7.1128   -0.8497   -2.8410 N   0  0  0  0  0  0  0  0  0  0  0  0
    8.0653    0.0524   -3.3358 C   0  0  0  0  0  0  0  0  0  0  0  0
    7.9137    1.4382   -3.3525 C   0  0  0  0  0  0  0  0  0  0  0  0
    9.1466   -0.5237   -4.0176 C   0  0  0  0  0  0  0  0  0  0  0  0
    8.8634    2.2878   -3.8979 C   0  0  0  0  0  0  0  0  0  0  0  0
   10.0828    0.3271   -4.5645 C   0  0  0  0  0  0  0  0  0  0  0  0
   10.0275    1.7656   -4.4598 C   0  0  0  0  0  0  0  0  0  0  0  0
   10.9938    2.4839   -5.0639 O   0  0  0  0  0  0  0  0  0  0  0  0
   10.9845    3.9020   -5.0815 C   0  0  0  0  0  0  0  0  0  0  0  0
  2  1  2  0
  3  2  1  0
  4  1  1  0
  5  4  2  0
  6  5  1  0
  6  3  2  0
  7  1  1  0
  8  6  1  0
  9  8  1  0
 10  9  2  0
 11  9  1  0
 12 10  1  0
 13 11  2  0
 14 13  1  0
 14 12  2  0
 15 14  1  0
 16 15  1  0
 17 16  2  0
 18 16  1  0
 19 17  1  0
 20 18  2  0
 21 20  1  0
 21 19  2  0
 22 21  1  0
 23 22  1  0
M  END
>  <SMILES>  (36) 
COc1ccc(Nc2ccc(Sc3ccc(Cl)cn3)cc2)cc1

>  <scaffold>  (36) 
pyridine

$$$$

     RDKit          3D

 27 29  0  0  0  0  0  0  0  0999 V2000
    0.0000   -0.0000   -0.0000 C   0  0  0  0  0  0  0  0  0  0  0  0
   -0.0000   -0.0000    1.3941 C   0  0  0  0  0  0  0  0  0  0  0  0
    1.2262    0.0000    2.0406 C   0  0  0  0  0  0  0  0  0  0  0  0
    1.2462   -0.0000   -0.6426 C   0  0  0  0  0  0  0  0  0  0  0  0
    2.3850   -0.0559    0.0156 N   0  0  0  0  0  0  0  0  0  0  0  0
    2.3843   -0.1153    1.3384 C   0  0  0  0  0  0  0  0  0  0  0  0
   -1.1117   -0.0546   -0.7994 O   0  0  0  0  0  0  0  0  0  0  0  0
   -2.3275   -0.3592   -0.1531 C   0  0  0  0  0  0  0  0  0  0  0  0
    3.5509   -0.2179    1.9561 O   0  0  0  0  0  0  0  0  0  0  0  0
    4.7548   -0.2601    1.1770 C   0  0  0  0  0  0  0  0  0  0  0  0
   -2.4292   -1.7032    0.5094 C   0  0  0  0  0  0  0  0  0  0  0  0
   -1.6594   -2.7933    0.1979 C   0  0  0  0  0  0  0  0  0  0  0  0
   -3.2503   -1.9065    1.5478 O   0  0  0  0  0  0  0  0  0  0  0  0
   -2.2458   -3.7268    1.0902 C   0  0  0  0  0  0  0  0  0  0  0  0
   -3.1971   -3.2062    1.9266 C   0  0  0  0  0  0  0  0  0  0  0  0
    5.0324    1.1124    0.6107 C   0  0  0  0  0  0  0  0  0  0  0  0
    4.9337    2.2733    1.3469 C   0  0  0  0  0  0  0  0  0  0  0  0
    5.4812    1.2470   -0.6938 C   0  0  0  0  0  0  0  0  0  0  0  0
    5.2258    3.5474    0.8855 C   0  0  0  0  0  0  0  0  0  0  0  0
    5.7696    2.5226   -1.1533 C   0  0  0  0  0  0  0  0  0  0  0  0
    5.6560    3.6631   -0.4355 C   0  0  0  0  0  0  0  0  0  0  0  0
    5.0674    4.6666    1.6322 F   0  0  0  0  0  0  0  0  0  0  0  0
    5.9777    4.9271   -0.8297 O   0  0  0  0  0  0  0  0  0  0  0  0
   -3.9669   -3.6996    3.0964 C   0  0  0  0  0  0  0  0  0  0  0  0
   -3.0607   -3.7012    4.3373 C   0  0  0  0  0  0  0  0  0  0  0  0
    6.2880    5.1152   -2.1758 C   0  0  0  0  0  0  0  0  0  0  0  0
    5.0832    4.8649   -3.0814 C   0  0  0  0  0  0  0  0  0  0  0  0
  2  1  2  0
  3  2  1  0
  4  1  1  0
  5  4  2  0
  6  5  1  0
  6  3  2  0
  7  1  1  0
  8  7  1  0
  9  6  1  0
 10  9  1  0
 11  8  1  0
 12 11  2  0
 13 11  1  0
 14 12  1  0
 15 14  2  0
 15 13  1  0
 16 10  1  0
 17 16  2  0
 18 16  1  0
 19 17  1  0
 20 18  2  0
 21 19  2  0
 21 20  1  0
 22 19  1  0
 23 21  1  0
 24 15  1  0
 25 24  1  0
 26 23  1  0
 27 26  1  0
M  END
>  <SMILES>  (37) 
CCOc1ccc(COc2ccc(OCc3ccc(CC)o3)cn2)cc1F

>  <scaffold>  (37) 
pyridine

$$$$

     RDKit          3D

 25 26  0  0  0  0  0  0  0  0999 V2000
   -0.0000   -0.0000   -0.0000 C   0  0  0  0  0  0  0  0  0  0  0  0
    0.0000    0.0000    1.4021 C   0  0  0  0  0  0  0  0  0  0  0  0
    1.2084    0.0000    2.0649 C   0  0  0  0  0  0  0  0  0  0  0  0
    1.2462    0.0000   -0.6426 C   0  0  0  0  0  0  0  0  0  0  0  0
    2.4163    0.0000   -0.0392 N   0  0  0  0  0  0  0  0  0  0  0  0
    2.4163   -0.0000    1.2849 C   0  0  0  0  0  0  0  0  0  0  0  0
   -1.1585    0.0000   -0.7465 N   0  0  0  0  0  0  0  0  0  0  0  0
   -2.4618   -0.0000   -0.3491 C   0  0  0  0  0  0  0  0  0  0  0  0
   -2.8408    0.0574    0.7966 O   0  0  0  0  0  0  0  0  0  0  0  0
   -3.3854   -0.0539   -1.3494 N   0  0  0  0  0  0  0  0  0  0  0  0
   -4.7648    0.0914   -1.0948 N   0  0  0  0  0  0  0  0  0  0  0  0
   -5.5294    1.0150   -1.7584 C   0  0  0  0  0  0  0  0  0  0  0  0
   -4.9420    1.5022   -2.8498 N   0  0  0  0  0  0  0  0  0  0  0  0
   -6.8382    1.3362   -1.4016 C   0  0  0  0  0  0  0  0  0  0  0  0
   -5.6864    2.2997   -3.5868 C   0  0  0  0  0  0  0  0  0  0  0  0
   -7.5938    2.1620   -2.1649 C   0  0  0  0  0  0  0  0  0  0  0  0
   -6.9981    2.6790   -3.3482 C   0  0  0  0  0  0  0  0  0  0  0  0
   -7.8206    3.4589   -4.1043 O   0  0  0  0  0  0  0  0  0  0  0  0
   -7.2497    4.0124   -5.2787 C   0  0  0  0  0  0  0  0  0  0  0  0
   -6.3679    5.2254   -4.9868 C   0  0  0  0  0  0  0  0  0  0  0  0
   -5.8226    5.8156   -6.2863 C   0  0  0  0  0  0  0  0  0  0  0  0
   -4.8888    7.0006   -6.0452 C   0  0  0  0  0  0  0  0  0  0  0  0
   -4.4155    7.5869   -7.3744 C   0  0  0  0  0  0  0  0  0  0  0  0
   -3.4340    8.7428   -7.1876 C   0  0  0  0  0  0  0  0  0  0  0  0
   -2.9505    9.2564   -8.5430 C   0  0  0  0  0  0  0  0  0  0  0  0
  2  1  2  0
  3  2  1  0
  4  1  1  0
  5  4  2  0
  6  5  1  0
  6  3  2  0
  7  1  1  0
  8  7  1  0
  9  8  2  0
 10  8  1  0
 11 10  1  0
 12 11  1  0
 13 12  2  0
 14 12  1  0
 15 13  1  0
 16 14  2  0
 17 16  1  0
 17 15  2  0
 18 17  1  0
 19 18  1  0
 20 19  1  0
 21 20  1  0
 22 21  1  0
 23 22  1  0
 24 23  1  0
 25 24  1  0
M  END
>  <SMILES>  (38) 
CCCCCCCOc1ccc(NNC(=O)Nc2cccnc2)nc1

>  <scaffold>  (38) 
pyridine

$$$$

     RDKit          3D

 25 27  0  0  0  0  0  0  0  0999 V2000
   -0.0000   -0.0000   -0.0000 C   0  0  0  0  0  0  0  0  0  0  0  0
   -0.0000    0.0000    1.4102 C   0  0  0  0  0  0  0  0  0  0  0  0
    1.1837    0.0000    2.0850 C   0  0  0  0  0  0  0  0  0  0  0  0
    1.2041   -0.0000   -0.6209 C   0  0  0  0  0  0  0  0  0  0  0  0
    2.4151    0.0000    0.0036 N   0  0  0  0  0  0  0  0  0  0  0  0
    2.4151    0.0000    1.3818 C   0  0  0  0  0  0  0  0  0  0  0  0
    3.5919    0.0470    1.9358 N   0  0  0  0  0  0  0  0  0  0  0  0
    3.6369    0.0957    3.2357 N   0  0  0  0  0  0  0  0  0  0  0  0
    2.6100    0.1015    4.0231 C   0  0  0  0  0  0  0  0  0  0  0  0
    1.2353   -0.0172    3.4522 C   0  0  0  0  0  0  0  0  0  0  0  0
    0.3012   -0.0514    4.2286 O   0  0  0  0  0  0  0  0  0  0  0  0
    3.6719    0.0520   -0.7031 C   0  0  0  0  0  0  0  0  0  0  0  0
    2.7045    0.2020    5.3708 N   0  0  0  0  0  0  0  0  0  0  0  0
    4.0118    0.0572    5.9838 C   0  0  0  0  0  0  0  0  0  0  0  0
    4.3143   -1.3747    6.3211 C   0  0  0  0  0  0  0  0  0  0  0  0
    5.2168   -2.1224    5.6728 C   0  0  0  0  0  0  0  0  0  0  0  0
    5.5038   -3.5054    5.9234 C   0  0  0  0  0  0  0  0  0  0  0  0
    6.3586   -4.3871    5.2977 C   0  0  0  0  0  0  0  0  0  0  0  0
    4.7928   -4.1054    6.9082 O   0  0  0  0  0  0  0  0  0  0  0  0
    6.2118   -5.6466    5.9148 C   0  0  0  0  0  0  0  0  0  0  0  0
    5.2452   -5.3649    6.8563 C   0  0  0  0  0  0  0  0  0  0  0  0
    4.5719   -6.2837    7.8218 C   0  0  0  0  0  0  0  0  0  0  0  0
    3.1625   -6.6351    7.3478 C   0  0  0  0  0  0  0  0  0  0  0  0
    2.9524   -7.0715    6.2410 O   0  0  0  0  0  0  0  0  0  0  0  0
    2.1830   -6.2382    8.1580 O   0  0  0  0  0  0  0  0  0  0  0  0
  2  1  1  0
  3  2  2  0
  4  1  2  0
  5  4  1  0
  6  5  1  0
  6  3  1  0
  7  6  2  0
  8  7  1  0
  9  8  2  0
 10  9  1  0
 10  3  1  0
 11 10  2  0
 12  5  1  0
 13  9  1  0
 14 13  1  0
 15 14  1  0
 16 15  2  0
 17 16  1  0
 18 17  2  0
 19 17  1  0
 20 18  1  0
 21 19  1  0
 21 20  2  0
 22 21  1  0
 23 22  1  0
 24 23  2  0
 25 23  1  0
M  END
>  <SMILES>  (39) 
Cn1cccc2c(=O)c(NCC=Cc3ccc(CC(=O)O)o3)nnc1-2

>  <scaffold>  (39) 
pyridine

$$$$

     RDKit          3D

 30 31  0  0  0  0  0  0  0  0999 V2000
   -0.0000    0.0000    0.0000 C   0  0  0  0  0  0  0  0  0  0  0  0
    0.0000   -0.0000    1.3782 C   0  0  0  0  0  0  0  0  0  0  0  0
    1.2509    0.0000    2.0117 C   0  0  0  0  0  0  0  0  0  0  0  0
    1.1786    0.0000   -0.7595 C   0  0  0  0  0  0  0  0  0  0  0  0
    2.3554    0.0000   -0.1526 N   0  0  0  0  0  0  0  0  0  0  0  0
    2.3554   -0.0000    1.1639 C   0  0  0  0  0  0  0  0  0  0  0  0
    3.8045    0.0672    2.0938 S   0  0  0  0  0  0  0  0  0  0  0  0
    2.8604    0.0909    3.5705 C   0  0  0  0  0  0  0  0  0  0  0  0
    1.4952   -0.0056    3.3504 C   0  0  0  0  0  0  0  0  0  0  0  0
    3.4622    0.2041    4.8770 C   0  0  0  0  0  0  0  0  0  0  0  0
    2.9105    0.2765    5.9417 O   0  0  0  0  0  0  0  0  0  0  0  0
    1.1251   -0.0536   -2.2423 C   0  0  0  0  0  0  0  0  0  0  0  0
    0.5733   -0.0622    4.3097 O   0  0  0  0  0  0  0  0  0  0  0  0
    4.7990    0.2816    4.7311 O   0  0  0  0  0  0  0  0  0  0  0  0
    5.5162    0.3421    5.9627 C   0  0  0  0  0  0  0  0  0  0  0  0
    5.6123    1.7910    6.4381 C   0  0  0  0  0  0  0  0  0  0  0  0
    6.5849    2.6426    5.6074 C   0  0  2  0  0  0  0  0  0  0  0  0
    8.0355    2.3015    5.9445 C   0  0  0  0  0  0  0  0  0  0  0  0
    6.3528    4.1287    5.8758 C   0  0  0  0  0  0  0  0  0  0  0  0
    7.2600    5.0219    5.0312 C   0  0  0  0  0  0  0  0  0  0  0  0
    7.0275    6.4921    5.3760 C   0  0  0  0  0  0  0  0  0  0  0  0
    7.8735    7.4318    4.5182 C   0  0  0  0  0  0  0  0  0  0  0  0
    7.5644    8.8876    4.8638 C   0  0  0  0  0  0  0  0  0  0  0  0
    8.3464    9.8701    3.9936 C   0  0  0  0  0  0  0  0  0  0  0  0
    7.9616   11.3073    4.3410 C   0  0  0  0  0  0  0  0  0  0  0  0
    8.7575   12.3324    3.5347 C   0  0  0  0  0  0  0  0  0  0  0  0
    8.2978   13.7482    3.8789 C   0  0  0  0  0  0  0  0  0  0  0  0
    9.1635   14.7392    3.0853 C   0  0  0  0  0  0  0  0  0  0  0  0
    8.7787   16.1754    3.4367 C   0  0  0  0  0  0  0  0  0  0  0  0
    9.7018   17.1174    2.6653 C   0  0  0  0  0  0  0  0  0  0  0  0
  2  1  2  0
  3  2  1  0
  4  1  1  0
  5  4  2  0
  6  5  1  0
  6  3  1  0
  7  6  2  0
  8  7  1  0
  9  8  1  0
  9  3  2  0
 10  8  2  0
 11 10  1  0
 12  4  1  0
 13  9  1  0
 14 10  1  0
 15 14  1  0
 16 15  1  0
 17 16  1  0
 17 18  1  1
 19 17  1  0
 20 19  1  0
 21 20  1  0
 22 21  1  0
 23 22  1  0
 24 23  1  0
 25 24  1  0
 26 25  1  0
 27 26  1  0
 28 27  1  0
 29 28  1  0
 30 29  1  0
M  CHG  2   7   1  11  -1
M  END
>  <SMILES>  (40) 
CCCCCCCCCCCCC(C)CCOC([O-])=C1[S+]=c2nc(C)ccc2=C1O

>  <scaffold>  (40) 
pyridine

$$$$

     RDKit          3D

 29 31  0  0  0  0  0  0  0  0999 V2000
   -0.0000    0.0000   -0.0000 C   0  0  0  0  0  0  0  0  0  0  0  0
   -0.0000   -0.0000    1.3941 C   0  0  0  0  0  0  0  0  0  0  0  0
    1.2154    0.0000    2.0607 C   0  0  0  0  0  0  0  0  0  0  0  0
    1.2462    0.0000   -0.6426 C   0  0  0  0  0  0  0  0  0  0  0  0
    2.4163    0.0000   -0.0392 N   0  0  0  0  0  0  0  0  0  0  0  0
    2.4163   -0.0000    1.2849 C   0  0  0  0  0  0  0  0  0  0  0  0
   -1.1786   -0.0000   -0.7595 N   0  0  0  0  0  0  0  0  0  0  0  0
   -2.4617   -0.0630   -0.3053 C   0  0  0  0  0  0  0  0  0  0  0  0
   -2.7923   -0.1310    0.8620 O   0  0  0  0  0  0  0  0  0  0  0  0
   -3.4588    0.0164   -1.3795 C   0  0  0  0  0  0  0  0  0  0  0  0
   -4.7975   -0.1814   -1.1633 C   0  0  0  0  0  0  0  0  0  0  0  0
   -3.1438    0.3947   -3.0515 S   0  0  0  0  0  0  0  0  0  0  0  0
   -5.5384    0.0059   -2.3484 C   0  0  0  0  0  0  0  0  0  0  0  0
   -4.8070    0.3252   -3.4962 C   0  0  0  0  0  0  0  0  0  0  0  0
   -5.3567    0.4977   -4.8647 C   0  0  0  0  0  0  0  0  0  0  0  0
   -4.9580   -0.7387   -5.6690 C   0  0  0  0  0  0  0  0  0  0  0  0
   -5.3877   -1.8432   -5.4727 O   0  0  0  0  0  0  0  0  0  0  0  0
   -4.1559   -0.4009   -6.6669 O   0  0  0  0  0  0  0  0  0  0  0  0
   -3.5808   -1.3926   -7.5566 C   0  0  0  0  0  0  0  0  0  0  0  0
   -2.7166   -2.3798   -6.7737 C   0  0  0  0  0  0  0  0  0  0  0  0
   -2.7877   -0.5746   -8.5745 C   0  0  0  0  0  0  0  0  0  0  0  0
   -4.6810   -2.1671   -8.2806 C   0  0  0  0  0  0  0  0  0  0  0  0
   -4.1281   -3.1315   -9.3415 C   0  0  0  0  0  0  0  0  0  0  0  0
   -5.2490   -3.9101   -9.9889 C   0  0  0  0  0  0  0  0  0  0  0  0
   -5.8324   -5.0021   -9.3834 C   0  0  0  0  0  0  0  0  0  0  0  0
   -5.7954   -3.5253  -11.2124 C   0  0  0  0  0  0  0  0  0  0  0  0
   -6.8854   -5.6513   -9.9909 C   0  0  0  0  0  0  0  0  0  0  0  0
   -6.8502   -4.1746  -11.8168 C   0  0  0  0  0  0  0  0  0  0  0  0
   -7.4021   -5.2513  -11.2134 C   0  0  0  0  0  0  0  0  0  0  0  0
  2  1  2  0
  3  2  1  0
  4  1  1  0
  5  4  2  0
  6  5  1  0
  6  3  2  0
  7  1  1  0
  8  7  1  0
  9  8  2  0
 10  8  1  0
 11 10  2  0
 12 10  1  0
 13 11  1  0
 14 13  2  0
 14 12  1  0
 15 14  1  0
 16 15  1  0
 17 16  2  0
 18 16  1  0
 19 18  1  0
 20 19  1  0
 21 19  1  0
 22 19  1  0
 23 22  1  0
 24 23  1  0
 25 24  2  0
 26 24  1  0
 27 25  1  0
 28 26  2  0
 29 27  2  0
 29 28  1  0
M  END
>  <SMILES>  (41) 
CC(C)(CCc1ccccc1)OC(=O)Cc1ccc(C(=O)Nc2cccnc2)s1

>  <scaffold>  (41) 
pyridine

$$$$

     RDKit          3D

 27 30  0  0  0  0  0  0  0  0999 V2000
    0.0000   -0.0000   -0.0000 C   0  0  0  0  0  0  0  0  0  0  0  0
    0.0000   -0.0000    1.3862 C   0  0  0  0  0  0  0  0  0  0  0  0
    1.2154    0.0000    2.0527 C   0  0  0  0  0  0  0  0  0  0  0  0
    1.2391   -0.0000   -0.6390 C   0  0  0  0  0  0  0  0  0  0  0  0
    2.4092    0.0000   -0.0356 N   0  0  0  0  0  0  0  0  0  0  0  0
    2.4092   -0.0000    1.2885 C   0  0  0  0  0  0  0  0  0  0  0  0
   -1.2624    0.0000   -0.8135 C   0  0  0  0  0  0  0  0  0  0  0  0
    3.6697    0.0503    1.8820 N   0  0  0  0  0  0  0  0  0  0  0  0
    4.9012    0.0389    1.3175 C   0  0  0  0  0  0  0  0  0  0  0  0
    3.7936    0.1075    3.2143 N   0  0  0  0  0  0  0  0  0  0  0  0
    5.7999    0.0531    2.3415 C   0  0  0  0  0  0  0  0  0  0  0  0
    5.0288    0.0928    3.4501 N   0  0  0  0  0  0  0  0  0  0  0  0
    7.2742   -0.0067    2.3897 C   0  0  0  0  0  0  0  0  0  0  0  0
   -1.4605    1.3351   -1.4321 C   0  0  0  0  0  0  0  0  0  0  0  0
   -0.8215    2.3987   -1.1518 N   0  0  0  0  0  0  0  0  0  0  0  0
   -2.6666    1.5410   -2.6734 S   0  0  0  0  0  0  0  0  0  0  0  0
   -1.2297    3.5020   -1.8236 C   0  0  0  0  0  0  0  0  0  0  0  0
   -2.2381    3.2098   -2.6929 C   0  0  0  0  0  0  0  0  0  0  0  0
   -0.5901    4.8505   -1.5401 C   0  0  2  0  0  0  0  0  0  0  0  0
   -0.8317    5.7800   -2.5617 O   0  0  0  0  0  0  0  0  0  0  0  0
    0.9070    4.6426   -1.3872 C   0  0  0  0  0  0  0  0  0  0  0  0
    1.5651    4.7916   -0.1763 C   0  0  0  0  0  0  0  0  0  0  0  0
    1.6549    4.3280   -2.5012 C   0  0  0  0  0  0  0  0  0  0  0  0
    2.9096    4.5458   -0.0766 C   0  0  0  0  0  0  0  0  0  0  0  0
    2.9920    4.0848   -2.4039 C   0  0  0  0  0  0  0  0  0  0  0  0
    3.6706    4.1398   -1.1718 C   0  0  0  0  0  0  0  0  0  0  0  0
    4.9789    3.8770   -0.9380 O   0  0  0  0  0  0  0  0  0  0  0  0
  2  1  2  0
  3  2  1  0
  4  1  1  0
  5  4  2  0
  6  5  1  0
  6  3  2  0
  7  1  1  0
  8  6  1  0
  9  8  1  0
 10  8  1  0
 11  9  2  0
 12 10  2  0
 12 11  1  0
 13 11  1  0
 14  7  1  0
 15 14  2  0
 16 14  1  0
 17 15  1  0
 18 17  2  0
 18 16  1  0
 19 17  1  0
 19 20  1  6
 21 19  1  0
 22 21  2  0
 23 21  1  0
 24 22  1  0
 25 23  2  0
 26 25  1  0
 26 24  2  0
 27 26  1  0
M  END
>  <SMILES>  (42) 
Cc1cn(-c2ccc(Cc3nc(C(O)c4ccc(O)cc4)cs3)cn2)nn1

>  <scaffold>  (42) 
pyridine

$$$$

     RDKit          3D

 16 17  0  0  0  0  0  0  0  0999 V2000
   -0.0000    0.0000   -0.0000 C   0  0  0  0  0  0  0  0  0  0  0  0
   -0.0000   -0.0000    1.4102 C   0  0  0  0  0  0  0  0  0  0  0  0
    1.1860    0.0000    2.1123 C   0  0  0  0  0  0  0  0  0  0  0  0
    1.2605   -0.0000   -0.6500 C   0  0  0  0  0  0  0  0  0  0  0  0
    2.3799    0.0000    0.0713 N   0  0  0  0  0  0  0  0  0  0  0  0
    2.3799    0.0000    1.3954 C   0  0  0  0  0  0  0  0  0  0  0  0
   -1.5603    0.0767    2.3121 S   0  0  0  0  0  0  0  0  0  0  0  0
    1.3094    0.0489   -2.0030 N   0  0  0  0  0  0  0  0  0  0  0  0
    3.5504    0.0492    2.0912 N   0  0  0  0  0  0  0  0  0  0  0  0
   -1.6459    1.8187    2.6836 C   0  0  0  0  0  0  0  0  0  0  0  0
   -0.9037    2.7943    2.0365 C   0  0  0  0  0  0  0  0  0  0  0  0
   -2.5602    2.1589    3.6683 C   0  0  0  0  0  0  0  0  0  0  0  0
   -1.0961    4.1080    2.3758 C   0  0  0  0  0  0  0  0  0  0  0  0
   -2.7567    3.4885    4.0075 C   0  0  0  0  0  0  0  0  0  0  0  0
   -2.0091    4.5358    3.3502 C   0  0  0  0  0  0  0  0  0  0  0  0
   -2.1313    5.8500    3.6885 N   0  0  0  0  0  0  0  0  0  0  0  0
  2  1  2  0
  3  2  1  0
  4  1  1  0
  5  4  2  0
  6  5  1  0
  6  3  2  0
  7  2  1  0
  8  4  1  0
  9  6  1  0
 10  7  1  0
 11 10  2  0
 12 10  1  0
 13 11  1  0
 14 12  2  0
 15 14  1  0
 15 13  2  0
 16 15  1  0
M  END
>  <SMILES>  (43) 
Nc1ccc(Sc2cc(N)nc(N)c2)cc1

>  <scaffold>  (43) 
pyridine

$$$$

     RDKit          3D

 22 24  0  0  0  0  0  0  0  0999 V2000
   -0.0000   -0.0000    0.0000 C   0  0  0  0  0  0  0  0  0  0  0  0
   -0.0000    0.0000    1.3015 N   0  0  0  0  0  0  0  0  0  0  0  0
    1.1743   -0.0000    1.9456 C   0  0  0  0  0  0  0  0  0  0  0  0
    1.1375   -0.0559   -0.8179 C   0  0  0  0  0  0  0  0  0  0  0  0
    2.3610   -0.1160   -0.1862 C   0  0  0  0  0  0  0  0  0  0  0  0
    2.5034   -0.0626    1.2239 C   0  0  0  0  0  0  0  0  0  0  0  0
    3.6855   -0.0593    1.9779 C   0  0  0  0  0  0  0  0  0  0  0  0
    3.6928   -0.0580    3.3404 C   0  0  0  0  0  0  0  0  0  0  0  0
    2.4877   -0.0600    4.0414 C   0  0  0  0  0  0  0  0  0  0  0  0
    1.2664   -0.0633    3.4199 C   0  0  0  0  0  0  0  0  0  0  0  0
    5.2378   -0.1185    4.2492 S   0  0  0  0  0  6  0  0  0  0  0  0
    5.0951    0.2902    5.6170 O   0  0  0  0  0  0  0  0  0  0  0  0
    6.2564    0.5067    3.4705 O   0  0  0  0  0  0  0  0  0  0  0  0
    5.4990   -1.7709    4.3192 N   0  0  0  0  0  0  0  0  0  0  0  0
    3.5356   -0.1228   -0.9664 N   0  0  0  0  0  0  0  0  0  0  0  0
    4.3446   -1.2148   -1.1423 C   0  0  0  0  0  0  0  0  0  0  0  0
    4.0200    0.9544   -1.6768 C   0  0  0  0  0  0  0  0  0  0  0  0
    5.3964   -0.8127   -1.9095 C   0  0  0  0  0  0  0  0  0  0  0  0
    5.1870    0.5742   -2.2504 C   0  0  0  0  0  0  0  0  0  0  0  0
    3.3391    2.2832   -1.7014 C   0  0  0  0  0  0  0  0  0  0  0  0
    4.0951   -2.5860   -0.6064 C   0  0  0  0  0  0  0  0  0  0  0  0
    2.9916   -3.2745   -1.4081 C   0  0  0  0  0  0  0  0  0  0  0  0
  2  1  2  0
  3  2  1  0
  4  1  1  0
  5  4  2  0
  6  5  1  0
  6  3  2  0
  7  6  1  0
  8  7  2  0
  9  8  1  0
 10  9  2  0
 10  3  1  0
 11  8  1  0
 12 11  2  0
 13 11  2  0
 14 11  1  0
 15  5  1  0
 16 15  1  0
 17 15  1  0
 18 16  2  0
 19 18  1  0
 19 17  2  0
 20 17  1  0
 21 16  1  0
 22 21  1  0
M  END
>  <SMILES>  (44) 
CCc1ccc(C)n1-c1ccnc2ccc(S(N)(=O)=O)cc12

>  <scaffold>  (44) 
pyridine

$$$$

     RDKit          3D

 23 24  0  0  0  0  0  0  0  0999 V2000
    0.0000   -0.0000   -0.0000 C   0  0  0  0  0  0  0  0  0  0  0  0
    0.0000   -0.0000    1.3941 C   0  0  0  0  0  0  0  0  0  0  0  0
    1.2154   -0.0000    2.0607 C   0  0  0  0  0  0  0  0  0  0  0  0
    1.2391    0.0000   -0.6390 C   0  0  0  0  0  0  0  0  0  0  0  0
    2.4092    0.0000   -0.0356 N   0  0  0  0  0  0  0  0  0  0  0  0
    2.4092   -0.0000    1.2885 C   0  0  0  0  0  0  0  0  0  0  0  0
   -1.1719   -0.0000   -0.7551 N   0  0  0  0  0  0  0  0  0  0  0  0
   -2.4752    0.0000   -0.3577 C   0  0  0  0  0  0  0  0  0  0  0  0
   -2.8031    0.0000    0.7979 O   0  0  0  0  0  0  0  0  0  0  0  0
   -3.2804   -0.0530   -1.4363 O   0  0  0  0  0  0  0  0  0  0  0  0
   -4.6714   -0.1227   -1.3737 N   0  0  0  0  0  0  0  0  0  0  0  0
   -5.2566    0.6897   -0.5773 C   0  0  0  0  0  0  0  0  0  0  0  0
   -6.6817    0.6911   -0.5165 C   0  0  0  0  0  0  0  0  0  0  0  0
   -7.6695   -0.0260   -1.1566 C   0  0  0  0  0  0  0  0  0  0  0  0
   -7.2590    1.5385    0.3808 O   0  0  0  0  0  0  0  0  0  0  0  0
   -8.8881    0.3857   -0.6400 C   0  0  0  0  0  0  0  0  0  0  0  0
   -8.5912    1.3133    0.2813 C   0  0  0  0  0  0  0  0  0  0  0  0
   -9.4391    1.9670    1.0860 O   0  0  0  0  0  0  0  0  0  0  0  0
   -9.0067    2.9097    2.0653 C   0  0  0  0  0  0  0  0  0  0  0  0
   -8.6053    4.2322    1.4140 C   0  0  0  0  0  0  0  0  0  0  0  0
   -8.2059    5.2162    2.5003 C   0  0  0  0  0  0  0  0  0  0  0  0
   -7.7697    6.8680    1.7744 S   0  0  0  0  0  0  0  0  0  0  0  0
   -8.0239    7.9917    3.1624 C   0  0  0  0  0  0  0  0  0  0  0  0
  2  1  2  0
  3  2  1  0
  4  1  1  0
  5  4  2  0
  6  5  1  0
  6  3  2  0
  7  1  1  0
  8  7  1  0
  9  8  2  0
 10  8  1  0
 11 10  1  0
 12 11  2  0
 13 12  1  0
 14 13  2  0
 15 13  1  0
 16 14  1  0
 17 16  2  0
 17 15  1  0
 18 17  1  0
 19 18  1  0
 20 19  1  0
 21 20  1  0
 22 21  1  0
 23 22  1  0
M  END
>  <SMILES>  (45) 
CSCCCOc1ccc(C=NOC(=O)Nc2cccnc2)o1

>  <scaffold>  (45) 
pyridine

$$$$

     RDKit          3D

 26 28  0  0  0  0  0  0  0  0999 V2000
   -0.0000   -0.0000   -0.0000 C   0  0  0  0  0  0  0  0  0  0  0  0
    0.0000    0.0000    1.4021 C   0  0  0  0  0  0  0  0  0  0  0  0
    1.1675   -0.0000    2.1196 C   0  0  0  0  0  0  0  0  0  0  0  0
    1.2110    0.0000   -0.6245 C   0  0  0  0  0  0  0  0  0  0  0  0
    2.3762   -0.0572    0.0490 N   0  0  0  0  0  0  0  0  0  0  0  0
    2.3754   -0.1198    1.4417 C   0  0  0  0  0  0  0  0  0  0  0  0
    3.4772   -0.2167    2.0251 O   0  0  0  0  0  0  0  0  0  0  0  0
    1.2944    0.0525    3.4596 O   0  0  0  0  0  0  0  0  0  0  0  0
    3.6271   -0.0029   -0.6513 C   0  0  0  0  0  0  0  0  0  0  0  0
    4.0808   -1.1397   -1.3019 C   0  0  0  0  0  0  0  0  0  0  0  0
    4.3463    1.1912   -0.6322 C   0  0  0  0  0  0  0  0  0  0  0  0
    5.3314   -1.0527   -1.9299 C   0  0  0  0  0  0  0  0  0  0  0  0
    5.5421    1.3069   -1.3394 C   0  0  0  0  0  0  0  0  0  0  0  0
    6.0740    0.1077   -1.9712 C   0  0  0  0  0  0  0  0  0  0  0  0
    3.3450   -2.2585   -1.3311 F   0  0  0  0  0  0  0  0  0  0  0  0
    6.3030    2.4368   -1.3107 N   0  0  0  0  0  0  0  0  0  0  0  0
    7.3057    0.2263   -2.5228 O   0  0  0  0  0  0  0  0  0  0  0  0
    5.8752    3.7501   -0.8656 C   0  0  0  0  0  0  0  0  0  0  0  0
    4.8210    4.3309   -1.7925 C   0  0  0  0  0  0  0  0  0  0  0  0
    3.6796    4.9253   -1.2773 C   0  0  0  0  0  0  0  0  0  0  0  0
    4.9797    4.3383   -3.1856 C   0  0  0  0  0  0  0  0  0  0  0  0
    2.7749    5.4818   -2.1555 C   0  0  0  0  0  0  0  0  0  0  0  0
    4.0747    4.8974   -4.0619 C   0  0  0  0  0  0  0  0  0  0  0  0
    2.9301    5.4889   -3.5490 C   0  0  0  0  0  0  0  0  0  0  0  0
    2.0314    5.9879   -4.4671 N   0  0  0  0  0  0  0  0  0  0  0  0
    0.9561    6.8642   -4.1012 C   0  0  0  0  0  0  0  0  0  0  0  0
  2  1  1  0
  3  2  2  0
  4  1  2  0
  5  4  1  0
  6  5  1  0
  6  3  1  0
  7  6  2  0
  8  3  1  0
  9  5  1  0
 10  9  2  0
 11  9  1  0
 12 10  1  0
 13 11  2  0
 14 12  2  0
 14 13  1  0
 15 10  1  0
 16 13  1  0
 17 14  1  0
 18 16  1  0
 19 18  1  0
 20 19  2  0
 21 19  1  0
 22 20  1  0
 23 21  2  0
 24 23  1  0
 24 22  2  0
 25 24  1  0
 26 25  1  0
M  END
>  <SMILES>  (46) 
CNc1ccc(CNc2cc(-n3cccc(O)c3=O)c(F)cc2O)cc1

>  <scaffold>  (46) 
pyridine

$$$$

     RDKit          3D

 13 14  0  0  0  0  0  0  0  0999 V2000
   -0.0000    0.0000   -0.0000 C   0  0  0  0  0  0  0  0  0  0  0  0
   -0.0000    0.0000    1.3241 N   0  0  0  0  0  0  0  0  0  0  0  0
    1.1543   -0.0000    1.9572 C   0  0  0  0  0  0  0  0  0  0  0  0
    1.1719   -0.0000   -0.7551 C   0  0  0  0  0  0  0  0  0  0  0  0
    2.3778    0.0592   -0.0581 C   0  0  0  0  0  0  0  0  0  0  0  0
    2.3770    0.1149    1.3269 C   0  0  0  0  0  0  0  0  0  0  0  0
    1.1174    0.0545   -2.2636 C   0  0  0  0  0  0  0  0  0  0  0  0
    1.6527    1.2971   -2.7648 N   0  0  0  0  0  0  0  0  0  0  0  0
    2.9117    1.4617   -3.2591 C   0  0  0  0  0  0  0  0  0  0  0  0
    1.0490    2.5186   -2.7557 C   0  0  0  0  0  0  0  0  0  0  0  0
    3.0564    2.7782   -3.5792 C   0  0  0  0  0  0  0  0  0  0  0  0
    1.9148    3.4764   -3.2819 C   0  0  0  0  0  0  0  0  0  0  0  0
    1.7450    4.9441   -3.4283 C   0  0  0  0  0  0  0  0  0  0  0  0
  2  1  2  0
  3  2  1  0
  4  1  1  0
  5  4  2  0
  6  5  1  0
  6  3  2  0
  7  4  1  0
  8  7  1  0
  9  8  1  0
 10  8  1  0
 11  9  2  0
 12 11  1  0
 12 10  2  0
 13 12  1  0
M  END
>  <SMILES>  (47) 
Cc1ccn(Cc2cccnc2)c1

>  <scaffold>  (47) 
pyridine

$$$$

     RDKit          3D

 30 32  0  0  0  0  0  0  0  0999 V2000
   -0.0000    0.0000   -0.0000 C   0  0  0  0  0  0  0  0  0  0  0  0
   -0.0000    0.0000    1.3941 C   0  0  0  0  0  0  0  0  0  0  0  0
    1.2042    0.0000    2.0806 C   0  0  0  0  0  0  0  0  0  0  0  0
    1.2462    0.0000   -0.6426 C   0  0  0  0  0  0  0  0  0  0  0  0
    2.4163    0.0000   -0.0392 N   0  0  0  0  0  0  0  0  0  0  0  0
    2.4163    0.0000    1.2849 C   0  0  0  0  0  0  0  0  0  0  0  0
   -1.0991   -0.0540   -0.7903 O   0  0  0  0  0  0  0  0  0  0  0  0
   -2.3884   -0.0540   -0.1993 C   0  0  0  0  0  0  0  0  0  0  0  0
   -3.4054   -0.1788   -1.2973 C   0  0  0  0  0  0  0  0  0  0  0  0
   -4.5724    0.5974   -1.3371 C   0  0  0  0  0  0  0  0  0  0  0  0
   -3.2361   -1.1088   -2.3220 C   0  0  0  0  0  0  0  0  0  0  0  0
   -5.4696    0.4191   -2.3049 N   0  0  0  0  0  0  0  0  0  0  0  0
   -4.1659   -1.2932   -3.3225 C   0  0  0  0  0  0  0  0  0  0  0  0
   -5.3089   -0.4780   -3.2550 C   0  0  0  0  0  0  0  0  0  0  0  0
   -6.1745   -0.6621   -4.2910 O   0  0  0  0  0  0  0  0  0  0  0  0
   -4.8160    1.4885   -0.3779 O   0  0  0  0  0  0  0  0  0  0  0  0
   -5.9628    2.3363   -0.4018 C   0  0  0  0  0  0  0  0  0  0  0  0
   -7.3574   -0.0257   -4.3921 C   0  0  0  0  0  0  0  0  0  0  0  0
   -7.8885    0.6431   -3.5375 O   0  0  0  0  0  0  0  0  0  0  0  0
   -5.7912    3.4701   -1.4115 C   0  0  0  0  0  0  0  0  0  0  0  0
   -7.9756   -0.3093   -5.6929 C   0  0  0  0  0  0  0  0  0  0  0  0
   -9.2765    0.1212   -5.9493 C   0  0  0  0  0  0  0  0  0  0  0  0
   -7.3294   -0.9826   -6.7179 C   0  0  0  0  0  0  0  0  0  0  0  0
   -9.8730   -0.0763   -7.1583 C   0  0  0  0  0  0  0  0  0  0  0  0
   -7.9301   -1.1815   -7.9334 C   0  0  0  0  0  0  0  0  0  0  0  0
   -9.1903   -0.7297   -8.2050 C   0  0  0  0  0  0  0  0  0  0  0  0
   -9.8556   -0.8193   -9.3552 O   0  0  0  0  0  0  0  0  0  0  0  0
   -9.2626   -1.3984  -10.4861 C   0  0  0  0  0  0  0  0  0  0  0  0
   -8.2589   -0.4504  -11.1404 C   0  0  0  0  0  0  0  0  0  0  0  0
   -7.6032   -1.1471  -12.3317 C   0  0  0  0  0  0  0  0  0  0  0  0
  2  1  2  0
  3  2  1  0
  4  1  1  0
  5  4  2  0
  6  5  1  0
  6  3  2  0
  7  1  1  0
  8  7  1  0
  9  8  1  0
 10  9  2  0
 11  9  1  0
 12 10  1  0
 13 11  2  0
 14 13  1  0
 14 12  2  0
 15 14  1  0
 16 10  1  0
 17 16  1  0
 18 15  1  0
 19 18  2  0
 20 17  1  0
 21 18  1  0
 22 21  2  0
 23 21  1  0
 24 22  1  0
 25 23  2  0
 26 25  1  0
 26 24  2  0
 27 26  1  0
 28 27  1  0
 29 28  1  0
 30 29  1  0
M  END
>  <SMILES>  (48) 
CCCOc1ccc(C(=O)Oc2ccc(COc3cccnc3)c(OCC)n2)cc1

>  <scaffold>  (48) 
pyridine

$$$$

     RDKit          3D

 27 29  0  0  0  0  0  0  0  0999 V2000
   -0.0000   -0.0000   -0.0000 C   0  0  0  0  0  0  0  0  0  0  0  0
   -0.0000   -0.0000    1.3317 N   0  0  0  0  0  0  0  0  0  0  0  0
    1.1394   -0.0000    2.0063 C   0  0  0  0  0  0  0  0  0  0  0  0
    1.2338    0.0606   -0.7132 C   0  0  0  0  0  0  0  0  0  0  0  0
    2.4343    0.0606   -0.0201 C   0  0  0  0  0  0  0  0  0  0  0  0
    2.3684   -0.0002    1.3711 C   0  0  0  0  0  0  0  0  0  0  0  0
    1.0911    0.0483    3.3439 O   0  0  0  0  0  0  0  0  0  0  0  0
    1.1717    0.1920   -2.1322 C   0  0  0  0  0  0  0  0  0  0  0  0
    1.3461    0.3839   -3.2568 N   0  0  0  0  0  0  0  0  0  0  0  0
   -0.0906   -0.1925    3.9948 C   0  0  0  0  0  0  0  0  0  0  0  0
   -0.9100   -1.2750    3.7151 C   0  0  0  0  0  0  0  0  0  0  0  0
   -0.3635    0.6263    5.0895 C   0  0  0  0  0  0  0  0  0  0  0  0
   -2.0526   -1.5007    4.4223 C   0  0  0  0  0  0  0  0  0  0  0  0
   -1.5173    0.3889    5.8051 C   0  0  0  0  0  0  0  0  0  0  0  0
   -2.3581   -0.6543    5.4766 C   0  0  0  0  0  0  0  0  0  0  0  0
    3.5211    0.0465    2.0961 O   0  0  0  0  0  0  0  0  0  0  0  0
   -3.5073   -0.8108    6.1768 O   0  0  0  0  0  0  0  0  0  0  0  0
   -4.2696   -1.9683    6.2018 C   0  0  0  0  0  0  0  0  0  0  0  0
   -3.6759   -3.1851    6.4595 C   0  0  0  0  0  0  0  0  0  0  0  0
   -5.6351   -1.9338    5.9659 C   0  0  0  0  0  0  0  0  0  0  0  0
   -4.4816   -4.3016    6.5227 C   0  0  0  0  0  0  0  0  0  0  0  0
   -6.4455   -3.0566    6.0292 C   0  0  0  0  0  0  0  0  0  0  0  0
   -5.8670   -4.2155    6.3924 C   0  0  0  0  0  0  0  0  0  0  0  0
   -6.5513   -5.3934    6.4197 O   0  0  0  0  0  0  0  0  0  0  0  0
   -7.9497   -5.3609    6.2410 C   0  0  0  0  0  0  0  0  0  0  0  0
   -8.4331   -6.8101    6.2583 C   0  0  0  0  0  0  0  0  0  0  0  0
   -7.8630   -7.6961    5.1518 C   0  0  0  0  0  0  0  0  0  0  0  0
  2  1  2  0
  3  2  1  0
  4  1  1  0
  5  4  2  0
  6  5  1  0
  6  3  2  0
  7  3  1  0
  8  4  1  0
  9  8  3  0
 10  7  1  0
 11 10  2  0
 12 10  1  0
 13 11  1  0
 14 12  2  0
 15 13  2  0
 15 14  1  0
 16  6  1  0
 17 15  1  0
 18 17  1  0
 19 18  2  0
 20 18  1  0
 21 19  1  0
 22 20  2  0
 23 22  1  0
 23 21  2  0
 24 23  1  0
 25 24  1  0
 26 25  1  0
 27 26  1  0
M  END
>  <SMILES>  (49) 
CCCOc1ccc(Oc2ccc(Oc3ncc(C#N)cc3O)cc2)cc1

>  <scaffold>  (49) 
pyridine

$$$$

     RDKit          3D

 24 26  0  0  0  0  0  0  0  0999 V2000
    0.0000    0.0000   -0.0000 C   0  0  0  0  0  0  0  0  0  0  0  0
   -0.0000   -0.0000    1.3941 C   0  0  0  0  0  0  0  0  0  0  0  0
    1.2084   -0.0000    2.0569 C   0  0  0  0  0  0  0  0  0  0  0  0
    1.2320    0.0000   -0.6353 C   0  0  0  0  0  0  0  0  0  0  0  0
    2.4088    0.0000   -0.0284 N   0  0  0  0  0  0  0  0  0  0  0  0
    2.4088    0.0000    1.2956 C   0  0  0  0  0  0  0  0  0  0  0  0
   -1.1323   -0.0000   -0.7296 F   0  0  0  0  0  0  0  0  0  0  0  0
    3.5688    0.0480    1.9479 O   0  0  0  0  0  0  0  0  0  0  0  0
    4.8146    0.0384    1.3769 C   0  0  0  0  0  0  0  0  0  0  0  0
    4.9244   -0.0816    0.0705 N   0  0  0  0  0  0  0  0  0  0  0  0
    5.9005    0.1490    2.2183 C   0  0  0  0  0  0  0  0  0  0  0  0
    6.1970   -0.1305   -0.3682 C   0  0  0  0  0  0  0  0  0  0  0  0
    7.2175    0.0975    1.7641 C   0  0  0  0  0  0  0  0  0  0  0  0
    7.3451   -0.0730    0.3488 C   0  0  0  0  0  0  0  0  0  0  0  0
    8.3139    0.1530    2.5580 N   0  0  0  0  0  0  0  0  0  0  0  0
    8.2350    0.5343    3.9559 C   0  0  0  0  0  0  0  0  0  0  0  0
    7.9637    1.9756    4.1249 C   0  0  0  0  0  0  0  0  0  0  0  0
    6.8250    2.6402    4.4686 C   0  0  0  0  0  0  0  0  0  0  0  0
    8.9889    2.8545    3.9431 O   0  0  0  0  0  0  0  0  0  0  0  0
    7.1777    4.0127    4.4122 C   0  0  0  0  0  0  0  0  0  0  0  0
    8.4808    4.0839    4.0988 C   0  0  0  0  0  0  0  0  0  0  0  0
    9.5745    5.4626    3.9936 S   0  0  0  0  0  0  0  0  0  0  0  0
   10.4937    5.1228    2.4421 C   0  0  0  0  0  0  0  0  0  0  0  0
    9.7026    5.5754    1.2159 C   0  0  0  0  0  0  0  0  0  0  0  0
  2  1  2  0
  3  2  1  0
  4  1  1  0
  5  4  2  0
  6  5  1  0
  6  3  2  0
  7  1  1  0
  8  6  1  0
  9  8  1  0
 10  9  2  0
 11  9  1  0
 12 10  1  0
 13 11  2  0
 14 13  1  0
 14 12  2  0
 15 13  1  0
 16 15  1  0
 17 16  1  0
 18 17  2  0
 19 17  1  0
 20 18  1  0
 21 20  2  0
 21 19  1  0
 22 21  1  0
 23 22  1  0
 24 23  1  0
M  END
>  <SMILES>  (50) 
CCSc1ccc(CNc2ccnc(Oc3ccc(F)cn3)c2)o1

>  <scaffold>  (50) 
pyridine

$$$$
