
     RDKit          3D

 27 29  0  0  0  0  0  0  0  0999 V2000
   -0.0000   -0.0000    0.0000 N   0  0  0  0  0  0  0  0  0  0  0  0
    0.0000    0.0000    1.3317 C   0  0  0  0  0  0  0  0  0  0  0  0
    1.0613    0.0000    2.1108 N   0  0  0  0  0  0  0  0  0  0  0  0
    1.1194   -0.0000   -0.7213 C   0  0  0  0  0  0  0  0  0  0  0  0
    2.2980    0.0000    0.0381 C   0  0  0  0  0  0  0  0  0  0  0  0
    2.2980    0.0000    1.4403 C   0  0  0  0  0  0  0  0  0  0  0  0
    3.4752    0.0494   -0.6616 O   0  0  0  0  0  0  0  0  0  0  0  0
   -1.2231   -0.0601    1.8930 O   0  0  0  0  0  0  0  0  0  0  0  0
   -1.4617    0.0830    3.2348 C   0  0  0  0  0  0  0  0  0  0  0  0
   -0.7488    0.9643    4.0462 C   0  0  0  0  0  0  0  0  0  0  0  0
   -2.5004   -0.6478    3.7702 C   0  0  0  0  0  0  0  0  0  0  0  0
   -1.1196    1.0575    5.3786 C   0  0  0  0  0  0  0  0  0  0  0  0
   -2.8714   -0.5484    5.0939 C   0  0  0  0  0  0  0  0  0  0  0  0
   -2.1964    0.3551    5.8969 C   0  0  0  0  0  0  0  0  0  0  0  0
    1.0705   -0.0489   -2.0743 N   0  0  0  0  0  0  0  0  0  0  0  0
   -0.2868    1.9800    6.2218 C   0  0  0  0  0  0  0  0  0  0  0  0
    0.8738    2.2348    6.0033 O   0  0  0  0  0  0  0  0  0  0  0  0
   -1.0243    2.4873    7.2492 N   0  0  0  0  0  0  0  0  0  0  0  0
   -0.6016    3.3307    8.2755 C   0  0  0  0  0  0  0  0  0  0  0  0
    0.6991    3.7018    8.4958 C   0  0  0  0  0  0  0  0  0  0  0  0
   -1.6286    3.8132    9.0992 C   0  0  0  0  0  0  0  0  0  0  0  0
    1.0006    4.5051    9.5845 C   0  0  0  0  0  0  0  0  0  0  0  0
   -1.3313    4.6087   10.1747 C   0  0  0  0  0  0  0  0  0  0  0  0
    0.0428    4.9672   10.4860 C   0  0  0  0  0  0  0  0  0  0  0  0
    0.2902    5.8158   11.5641 N   0  0  0  0  0  0  0  0  0  0  0  0
    1.4844    6.3503   11.9443 C   0  0  0  0  0  0  0  0  0  0  0  0
    2.5364    6.1674   11.3938 O   0  0  0  0  0  0  0  0  0  0  0  0
  2  1  2  0
  3  2  1  0
  4  1  1  0
  5  4  2  0
  6  5  1  0
  6  3  2  0
  7  5  1  0
  8  2  1  0
  9  8  1  0
 10  9  2  0
 11  9  1  0
 12 10  1  0
 13 11  2  0
 14 13  1  0
 14 12  2  0
 15  4  1  0
 16 12  1  0
 17 16  2  0
 18 16  1  0
 19 18  1  0
 20 19  2  0
 21 19  1  0
 22 20  1  0
 23 21  2  0
 24 23  1  0
 24 22  2  0
 25 24  1  0
 26 25  1  0
 27 26  2  0
M  END
>  <SMILES>  (1) 
Nc1nc(Oc2cccc(C(=O)Nc3ccc(NC=O)cc3)c2)ncc1O

>  <scaffold>  (1) 
pyrimidine

$$$$

     RDKit          3D

 25 27  0  0  0  0  0  0  0  0999 V2000
   -0.0000   -0.0000    0.0000 C   0  0  0  0  0  0  0  0  0  0  0  0
   -0.0000   -0.0000    1.4183 C   0  0  0  0  0  0  0  0  0  0  0  0
    1.2879    0.0000    1.9925 C   0  0  0  0  0  0  0  0  0  0  0  0
    1.1453   -0.0563   -0.6620 N   0  0  0  0  0  0  0  0  0  0  0  0
    2.2920   -0.0563    0.0000 C   0  0  0  0  0  0  0  0  0  0  0  0
    2.4174    0.0543    1.2983 N   0  0  0  0  0  0  0  0  0  0  0  0
   -1.0016    0.0525    2.4210 C   0  0  0  0  0  0  0  0  0  0  0  0
   -0.5236    0.0811    3.6966 C   0  0  0  0  0  0  0  0  0  0  0  0
    0.8519    0.0018    4.0660 C   0  0  0  0  0  0  0  0  0  0  0  0
    1.8068   -0.0521    3.1064 C   0  0  0  0  0  0  0  0  0  0  0  0
   -1.1786    0.0579   -0.6813 N   0  0  0  0  0  0  0  0  0  0  0  0
   -1.4532    0.1267   -2.0463 C   0  0  0  0  0  0  0  0  0  0  0  0
   -2.6100    0.1201   -2.3699 O   0  0  0  0  0  0  0  0  0  0  0  0
   -0.3844    0.2634   -2.8676 N   0  0  0  0  0  0  0  0  0  0  0  0
   -0.3862    0.4093   -4.2460 C   0  0  0  0  0  0  0  0  0  0  0  0
    0.8261    0.7817   -4.8441 C   0  0  0  0  0  0  0  0  0  0  0  0
   -1.4964    0.1818   -5.0580 C   0  0  0  0  0  0  0  0  0  0  0  0
    0.8855    0.8921   -6.2326 C   0  0  0  0  0  0  0  0  0  0  0  0
   -1.4368    0.2925   -6.4305 C   0  0  0  0  0  0  0  0  0  0  0  0
   -0.2168    0.7021   -6.9970 C   0  0  0  0  0  0  0  0  0  0  0  0
    2.3124    1.1398   -3.9063 S   0  0  0  0  0  0  0  0  0  0  0  0
    2.4516    2.9485   -4.1024 C   0  0  0  0  0  0  0  0  0  0  0  0
    1.3937    3.7425   -3.3377 C   0  0  0  0  0  0  0  0  0  0  0  0
    1.7002    3.7527   -1.8409 C   0  0  0  0  0  0  0  0  0  0  0  0
    1.3234    5.1850   -3.8363 C   0  0  0  0  0  0  0  0  0  0  0  0
  2  1  1  0
  3  2  2  0
  4  1  2  0
  5  4  1  0
  6  5  2  0
  6  3  1  0
  7  2  1  0
  8  7  2  0
  9  8  1  0
 10  9  2  0
 10  3  1  0
 11  1  1  0
 12 11  2  0
 13 12  1  0
 14 12  1  0
 15 14  2  0
 16 15  1  0
 17 15  1  0
 18 16  1  0
 19 17  2  0
 20 19  1  0
 20 18  2  0
 21 16  2  0
 22 21  1  0
 23 22  1  0
 24 23  1  0
 25 23  1  0
M  CHG  4  10  -1  13  -1  14   1  21   1
M  END
>  <SMILES>  (2) 
CC(C)C[S+]=C1C=CC=CC1=[NH+]C([O-])=Nc1ncnc2[c-]cccc12

>  <scaffold>  (2) 
pyrimidine

$$$$

     RDKit          3D

 33 35  0  0  0  0  0  0  0  0999 V2000
    0.0000   -0.0000    0.0000 N   0  0  0  0  0  0  0  0  0  0  0  0
    0.0000   -0.0000    1.3317 C   0  0  0  0  0  0  0  0  0  0  0  0
    1.0801   -0.0000    2.0976 N   0  0  0  0  0  0  0  0  0  0  0  0
    1.1712    0.1153   -0.6069 C   0  0  0  0  0  0  0  0  0  0  0  0
    2.3723    0.2935    0.0942 C   0  0  0  0  0  0  0  0  0  0  0  0
    2.1755    0.1629    1.4844 C   0  0  0  0  0  0  0  0  0  0  0  0
    3.6879    0.5663   -0.5376 C   0  0  0  0  0  0  0  0  0  0  0  0
   -1.2442   -0.0611    1.9027 N   0  0  0  0  0  0  0  0  0  0  0  0
   -1.5930   -0.0233    3.2437 C   0  0  0  0  0  0  0  0  0  0  0  0
   -2.6726   -0.4212    3.6122 O   0  0  0  0  0  0  0  0  0  0  0  0
    3.2478    0.1678    2.2483 O   0  0  0  0  0  0  0  0  0  0  0  0
   -0.6267    0.5661    4.2178 C   0  0  0  0  0  0  0  0  0  0  0  0
   -0.0471    1.7933    3.9778 C   0  0  0  0  0  0  0  0  0  0  0  0
   -0.4414   -0.0551    5.4610 C   0  0  0  0  0  0  0  0  0  0  0  0
    0.7409    2.3529    4.9714 C   0  0  0  0  0  0  0  0  0  0  0  0
    0.3975    0.4766    6.4052 C   0  0  0  0  0  0  0  0  0  0  0  0
    0.9038    1.7415    6.1958 C   0  0  0  0  0  0  0  0  0  0  0  0
    2.0221    2.4208    7.5724 Br  0  0  0  0  0  0  0  0  0  0  0  0
    0.7021   -0.0653    7.6352 O   0  0  0  0  0  0  0  0  0  0  0  0
   -0.1314   -1.1217    8.1083 C   0  0  0  0  0  0  0  0  0  0  0  0
   -1.4673   -0.6064    8.6661 C   0  0  1  0  0  0  0  0  0  0  0  0
   -2.4000   -1.7835    8.9469 C   0  0  0  0  0  0  0  0  0  0  0  0
   -1.2561    0.2830    9.8794 C   0  0  0  0  0  0  0  0  0  0  0  0
   -0.9986   -0.2334   11.1311 C   0  0  0  0  0  0  0  0  0  0  0  0
   -1.3135    1.6611    9.7418 C   0  0  0  0  0  0  0  0  0  0  0  0
   -0.8611    0.6211   12.2240 C   0  0  0  0  0  0  0  0  0  0  0  0
   -1.1764    2.5110   10.8282 C   0  0  0  0  0  0  0  0  0  0  0  0
   -0.9259    2.0014   12.0392 C   0  0  0  0  0  0  0  0  0  0  0  0
   -1.1772    3.8781   10.7338 O   0  0  0  0  0  0  0  0  0  0  0  0
   -1.2591    4.5325    9.4782 C   0  0  0  0  0  0  0  0  0  0  0  0
   -1.1795    6.0371    9.6728 C   0  0  0  0  0  0  0  0  0  0  0  0
   -1.3175    6.7879    8.3595 C   0  0  0  0  0  0  0  0  0  0  0  0
   -1.2856    8.2938    8.6161 C   0  0  0  0  0  0  0  0  0  0  0  0
  2  1  2  0
  3  2  1  0
  4  1  1  0
  5  4  2  0
  6  5  1  0
  6  3  2  0
  7  5  1  0
  8  2  1  0
  9  8  1  0
 10  9  2  0
 11  6  1  0
 12  9  1  0
 13 12  2  0
 14 12  1  0
 15 13  1  0
 16 14  2  0
 17 16  1  0
 17 15  2  0
 18 17  1  0
 19 16  1  0
 20 19  1  0
 21 20  1  0
 21 22  1  1
 23 21  1  0
 24 23  2  0
 25 23  1  0
 26 24  1  0
 27 25  2  0
 28 27  1  0
 28 26  2  0
 29 27  1  0
 30 29  1  0
 31 30  1  0
 32 31  1  0
 33 32  1  0
M  END
>  <SMILES>  (3) 
CCCCOc1cccc(C(C)COc2cc(C(=O)Nc3ncc(C)c(O)n3)ccc2Br)c1

>  <scaffold>  (3) 
pyrimidine

$$$$

     RDKit          3D

 24 26  0  0  0  0  0  0  0  0999 V2000
    0.0000    0.0000   -0.0000 N   0  0  0  0  0  0  0  0  0  0  0  0
    0.0000    0.0000    1.3241 C   0  0  0  0  0  0  0  0  0  0  0  0
    1.0926    0.0000    2.0721 N   0  0  0  0  0  0  0  0  0  0  0  0
    1.1519   -0.0566   -0.6658 C   0  0  0  0  0  0  0  0  0  0  0  0
    2.3895   -0.1174   -0.0269 C   0  0  0  0  0  0  0  0  0  0  0  0
    2.3240    0.0015    1.3687 C   0  0  0  0  0  0  0  0  0  0  0  0
   -1.3121    0.0000    2.0007 C   0  0  0  0  0  0  0  0  0  0  0  0
   -1.3668   -0.2044    3.3706 C   0  0  0  0  0  0  0  0  0  0  0  0
   -2.5063    0.1772    1.3037 C   0  0  0  0  0  0  0  0  0  0  0  0
   -2.5716   -0.2618    4.0376 C   0  0  0  0  0  0  0  0  0  0  0  0
   -3.7037    0.1209    1.9678 C   0  0  0  0  0  0  0  0  0  0  0  0
   -3.7394   -0.0525    3.3208 C   0  0  0  0  0  0  0  0  0  0  0  0
    3.4675    0.0096    2.0950 N   0  0  0  0  0  0  0  0  0  0  0  0
   -4.9821   -0.1355    3.8540 O   0  0  0  0  0  0  0  0  0  0  0  0
   -5.1114   -0.4538    5.2217 C   0  0  0  0  0  0  0  0  0  0  0  0
   -4.6509    0.6243    6.1467 C   0  0  0  0  0  0  0  0  0  0  0  0
   -4.5409    1.9562    5.8817 C   0  0  0  0  0  0  0  0  0  0  0  0
   -4.1941    0.2134    7.7671 S   0  0  0  0  0  0  0  0  0  0  0  0
   -4.1191    2.6515    7.0436 C   0  0  0  0  0  0  0  0  0  0  0  0
   -3.8794    1.8646    8.1886 C   0  0  0  0  0  0  0  0  0  0  0  0
   -3.3611    2.2577    9.5232 C   0  0  0  0  0  0  0  0  0  0  0  0
   -1.9299    1.7453    9.6768 C   0  0  0  0  0  0  0  0  0  0  0  0
   -0.9581    2.4098    9.4378 O   0  0  0  0  0  0  0  0  0  0  0  0
   -1.9331    0.4674    9.9933 O   0  0  0  0  0  0  0  0  0  0  0  0
  2  1  2  0
  3  2  1  0
  4  1  1  0
  5  4  2  0
  6  5  1  0
  6  3  2  0
  7  2  1  0
  8  7  2  0
  9  7  1  0
 10  8  1  0
 11  9  2  0
 12 11  1  0
 12 10  2  0
 13  6  1  0
 14 12  1  0
 15 14  1  0
 16 15  1  0
 17 16  2  0
 18 16  1  0
 19 17  1  0
 20 19  2  0
 20 18  1  0
 21 20  1  0
 22 21  1  0
 23 22  2  0
 24 22  1  0
M  END
>  <SMILES>  (4) 
Nc1ccnc(-c2ccc(OCc3ccc(CC(=O)O)s3)cc2)n1

>  <scaffold>  (4) 
pyrimidine

$$$$

     RDKit          3D

 30 32  0  0  0  0  0  0  0  0999 V2000
    0.0000   -0.0000    0.0000 C   0  0  0  0  0  0  0  0  0  0  0  0
    0.0000   -0.0000    1.3862 C   0  0  0  0  0  0  0  0  0  0  0  0
    1.2468   -0.0000    1.9920 C   0  0  0  0  0  0  0  0  0  0  0  0
    1.1067   -0.0000   -0.7131 N   0  0  0  0  0  0  0  0  0  0  0  0
    2.2325    0.0000    0.0124 C   0  0  0  0  0  0  0  0  0  0  0  0
    2.3613   -0.0000    1.3455 N   0  0  0  0  0  0  0  0  0  0  0  0
    3.3497    0.0492   -0.7660 N   0  0  0  0  0  0  0  0  0  0  0  0
    4.5255    0.0024   -0.1590 N   0  0  0  0  0  0  0  0  0  0  0  0
    5.5466    0.0052   -0.9298 C   0  0  0  0  0  0  0  0  0  0  0  0
    6.8291    0.0073   -0.3242 C   0  0  0  0  0  0  0  0  0  0  0  0
    7.3026    0.0071    0.9702 C   0  0  0  0  0  0  0  0  0  0  0  0
    7.8733    0.0587   -1.1735 O   0  0  0  0  0  0  0  0  0  0  0  0
    8.6948    0.0645    1.0146 C   0  0  0  0  0  0  0  0  0  0  0  0
    8.9130    0.1002   -0.3059 C   0  0  0  0  0  0  0  0  0  0  0  0
   10.1571    0.2173   -1.0437 C   0  0  0  0  0  0  0  0  0  0  0  0
   11.3011    0.3237   -0.2541 C   0  0  0  0  0  0  0  0  0  0  0  0
   10.3233    0.2815   -2.4183 C   0  0  0  0  0  0  0  0  0  0  0  0
   12.4513    0.4820   -0.9968 C   0  0  0  0  0  0  0  0  0  0  0  0
   11.4613    0.4401   -3.1506 C   0  0  0  0  0  0  0  0  0  0  0  0
   12.6205    0.5478   -2.3790 C   0  0  0  0  0  0  0  0  0  0  0  0
   14.0914    0.8108   -3.2568 Cl  0  0  0  0  0  0  0  0  0  0  0  0
   11.6788    0.4599   -4.4956 O   0  0  0  0  0  0  0  0  0  0  0  0
   10.5383    0.6648   -5.2563 C   0  0  0  0  0  0  0  0  0  0  0  0
    9.5215    1.2427   -4.9532 O   0  0  0  0  0  0  0  0  0  0  0  0
   10.9268    0.2456   -6.4846 N   0  0  0  0  0  0  0  0  0  0  0  0
    9.8725    0.4347   -7.4514 C   0  0  0  0  0  0  0  0  0  0  0  0
   12.1466   -0.2940   -7.0347 C   0  0  0  0  0  0  0  0  0  0  0  0
   13.1209    0.8279   -7.3903 C   0  0  0  0  0  0  0  0  0  0  0  0
   14.4127    0.2035   -7.9156 C   0  0  0  0  0  0  0  0  0  0  0  0
   15.4432    1.2853   -8.2352 C   0  0  0  0  0  0  0  0  0  0  0  0
  2  1  2  0
  3  2  1  0
  4  1  1  0
  5  4  2  0
  6  5  1  0
  6  3  2  0
  7  5  1  0
  8  7  1  0
  9  8  2  0
 10  9  1  0
 11 10  2  0
 12 10  1  0
 13 11  1  0
 14 13  2  0
 14 12  1  0
 15 14  1  0
 16 15  2  0
 17 15  1  0
 18 16  1  0
 19 17  2  0
 20 19  1  0
 20 18  2  0
 21 20  1  0
 22 19  1  0
 23 22  1  0
 24 23  2  0
 25 23  1  0
 26 25  1  0
 27 25  1  0
 28 27  1  0
 29 28  1  0
 30 29  1  0
M  END
>  <SMILES>  (5) 
CCCCN(C)C(=O)Oc1cc(-c2ccc(C=NNc3ncccn3)o2)ccc1Cl

>  <scaffold>  (5) 
pyrimidine

$$$$

     RDKit          3D

 15 16  0  0  0  0  0  0  0  0999 V2000
   -0.0000    0.0000   -0.0000 N   0  0  0  0  0  0  0  0  0  0  0  0
   -0.0000   -0.0000    1.3317 C   0  0  0  0  0  0  0  0  0  0  0  0
    1.0863   -0.0000    2.1020 N   0  0  0  0  0  0  0  0  0  0  0  0
    1.1585    0.0569   -0.6697 C   0  0  0  0  0  0  0  0  0  0  0  0
    2.3739    0.1766    0.0354 C   0  0  0  0  0  0  0  0  0  0  0  0
    2.2387    0.0588    1.4179 C   0  0  0  0  0  0  0  0  0  0  0  0
   -1.2371    0.0608    1.8994 N   0  0  0  0  0  0  0  0  0  0  0  0
   -1.6163    0.2401    3.2206 C   0  0  0  0  0  0  0  0  0  0  0  0
   -2.7507   -0.0251    3.5407 O   0  0  0  0  0  0  0  0  0  0  0  0
    3.7032    0.4091   -0.5630 C   0  0  0  0  0  0  0  0  0  0  0  0
    3.9335    1.5849   -1.2757 C   0  0  0  0  0  0  0  0  0  0  0  0
    4.7682   -0.4738   -0.3900 C   0  0  0  0  0  0  0  0  0  0  0  0
    5.1865    1.8710   -1.8159 C   0  0  0  0  0  0  0  0  0  0  0  0
    6.0052   -0.1898   -0.9274 C   0  0  0  0  0  0  0  0  0  0  0  0
    6.2033    0.9268   -1.6816 C   0  0  0  0  0  0  0  0  0  0  0  0
  2  1  2  0
  3  2  1  0
  4  1  1  0
  5  4  2  0
  6  5  1  0
  6  3  2  0
  7  2  1  0
  8  7  1  0
  9  8  2  0
 10  5  1  0
 11 10  2  0
 12 10  1  0
 13 11  1  0
 14 12  2  0
 15 13  2  0
 15 14  1  0
M  END
>  <SMILES>  (6) 
O=CNc1ncc(-c2ccccc2)cn1

>  <scaffold>  (6) 
pyrimidine

$$$$

     RDKit          3D

 29 32  0  0  0  0  0  0  0  0999 V2000
   -0.0000   -0.0000    0.0000 N   0  0  0  0  0  0  0  0  0  0  0  0
   -0.0000   -0.0000    1.3317 C   0  0  0  0  0  0  0  0  0  0  0  0
    1.0364   -0.0000    2.1191 N   0  0  0  0  0  0  0  0  0  0  0  0
    1.1701   -0.0000   -0.6034 C   0  0  0  0  0  0  0  0  0  0  0  0
    2.3830    0.0000    0.1781 C   0  0  0  0  0  0  0  0  0  0  0  0
    2.2466   -0.0000    1.5898 C   0  0  0  0  0  0  0  0  0  0  0  0
    3.6757    0.0544   -0.3408 C   0  0  0  0  0  0  0  0  0  0  0  0
    3.3475    0.0547    2.4563 C   0  0  0  0  0  0  0  0  0  0  0  0
    4.7505    0.1016    0.5081 C   0  0  0  0  0  0  0  0  0  0  0  0
    4.5893    0.1678    1.8879 C   0  0  0  0  0  0  0  0  0  0  0  0
    1.1218   -0.0483   -1.9410 N   0  0  0  0  0  0  0  0  0  0  0  0
    6.3385    0.2312   -0.1983 Cl  0  0  0  0  0  0  0  0  0  0  0  0
   -0.0957    0.0864   -2.7190 C   0  0  0  0  0  0  0  0  0  0  0  0
   -0.2680    1.5176   -3.1404 C   0  0  0  0  0  0  0  0  0  0  0  0
   -1.0751    2.3581   -2.4646 C   0  0  0  0  0  0  0  0  0  0  0  0
    0.3850    2.0156   -4.2966 C   0  0  0  0  0  0  0  0  0  0  0  0
   -1.2229    3.6601   -2.7767 N   0  0  0  0  0  0  0  0  0  0  0  0
    0.2389    3.3253   -4.6109 C   0  0  0  0  0  0  0  0  0  0  0  0
   -0.4958    4.2530   -3.7971 C   0  0  0  0  0  0  0  0  0  0  0  0
   -0.6274    5.4406   -4.0180 O   0  0  0  0  0  0  0  0  0  0  0  0
    0.9407    3.9034   -5.7739 C   0  0  0  0  0  0  0  0  0  0  0  0
    2.3137    3.7681   -5.9743 C   0  0  0  0  0  0  0  0  0  0  0  0
    0.2137    4.6762   -6.6660 C   0  0  0  0  0  0  0  0  0  0  0  0
    2.9329    4.3673   -7.0500 C   0  0  0  0  0  0  0  0  0  0  0  0
    0.8362    5.2767   -7.7390 C   0  0  0  0  0  0  0  0  0  0  0  0
    2.2317    5.1197   -7.9675 C   0  0  0  0  0  0  0  0  0  0  0  0
    2.8828    5.7229   -8.9705 F   0  0  0  0  0  0  0  0  0  0  0  0
    0.1663    5.9918   -8.6521 O   0  0  0  0  0  0  0  0  0  0  0  0
   -1.2459    6.1575   -8.5389 C   0  0  0  0  0  0  0  0  0  0  0  0
  2  1  2  0
  3  2  1  0
  4  1  1  0
  5  4  2  0
  6  5  1  0
  6  3  2  0
  7  5  1  0
  8  6  1  0
  9  7  2  0
 10  9  1  0
 10  8  2  0
 11  4  1  0
 12  9  1  0
 13 11  1  0
 14 13  1  0
 15 14  2  0
 16 14  1  0
 17 15  1  0
 18 16  2  0
 19 18  1  0
 19 17  1  0
 20 19  2  0
 21 18  1  0
 22 21  2  0
 23 21  1  0
 24 22  1  0
 25 23  2  0
 26 25  1  0
 26 24  2  0
 27 26  1  0
 28 25  1  0
 29 28  1  0
M  END
>  <SMILES>  (7) 
COc1cc(-c2cc(CNc3ncnc4ccc(Cl)cc34)c[nH]c2=O)ccc1F

>  <scaffold>  (7) 
pyrimidine

$$$$

     RDKit          3D

 33 35  0  0  0  0  0  0  0  0999 V2000
   -0.0000    0.0000    0.0000 C   0  0  0  0  0  0  0  0  0  0  0  0
    0.0000    0.0000    1.3862 C   0  0  0  0  0  0  0  0  0  0  0  0
    1.2437    0.0000    2.0160 C   0  0  0  0  0  0  0  0  0  0  0  0
    1.1130   -0.0000   -0.7172 N   0  0  0  0  0  0  0  0  0  0  0  0
    2.2453   -0.0000    0.0124 C   0  0  0  0  0  0  0  0  0  0  0  0
    2.3734    0.0000    1.3380 N   0  0  0  0  0  0  0  0  0  0  0  0
    3.4091    0.0489   -0.6794 N   0  0  0  0  0  0  0  0  0  0  0  0
    1.4088    0.0684    3.7598 S   0  0  0  0  0  0  0  0  0  0  0  0
    3.1910    0.1100    3.9573 C   0  0  0  0  0  0  0  0  0  0  0  0
    3.8281   -0.8789    4.6905 C   0  0  0  0  0  0  0  0  0  0  0  0
    3.9259    1.0836    3.3329 C   0  0  0  0  0  0  0  0  0  0  0  0
    5.2069   -0.9160    4.8287 C   0  0  0  0  0  0  0  0  0  0  0  0
    5.3043    1.0459    3.4748 C   0  0  0  0  0  0  0  0  0  0  0  0
    6.0104    0.0519    4.2278 C   0  0  0  0  0  0  0  0  0  0  0  0
    7.3645    0.0910    4.2472 O   0  0  0  0  0  0  0  0  0  0  0  0
    8.1229   -0.8250    5.0199 C   0  0  0  0  0  0  0  0  0  0  0  0
    8.0912   -0.4615    6.5035 C   0  0  1  0  0  0  0  0  0  0  0  0
    9.0095   -1.8769    7.5337 Br  0  0  0  0  0  0  0  0  0  0  0  0
    8.7383    0.8869    6.7697 C   0  0  0  0  0  0  0  0  0  0  0  0
    8.7295    1.1778    8.2696 C   0  0  0  0  0  0  0  0  0  0  0  0
    9.3357    2.5552    8.4768 C   0  0  0  0  0  0  0  0  0  0  0  0
    9.4398    2.9415    9.9244 C   0  0  0  0  0  0  0  0  0  0  0  0
   10.1760    4.1077   10.1771 C   0  0  0  0  0  0  0  0  0  0  0  0
    8.8899    2.2578   10.9975 C   0  0  0  0  0  0  0  0  0  0  0  0
   10.2576    4.5310   11.4945 C   0  0  0  0  0  0  0  0  0  0  0  0
    8.9711    2.6809   12.3150 C   0  0  0  0  0  0  0  0  0  0  0  0
    9.6739    3.9000   12.5820 C   0  0  0  0  0  0  0  0  0  0  0  0
    9.6379    4.2431   13.9001 O   0  0  0  0  0  0  0  0  0  0  0  0
   10.3282    5.4573   14.1466 C   0  0  0  0  0  0  0  0  0  0  0  0
   10.0763    5.6143   15.6365 C   0  0  0  0  0  0  0  0  0  0  0  0
   10.7588    6.9462   15.9440 C   0  0  0  0  0  0  0  0  0  0  0  0
   10.4315    7.0825   17.4302 C   0  0  0  0  0  0  0  0  0  0  0  0
   11.0502    8.4358   17.7772 C   0  0  0  0  0  0  0  0  0  0  0  0
  2  1  2  0
  3  2  1  0
  4  1  1  0
  5  4  2  0
  6  5  1  0
  6  3  2  0
  7  5  1  0
  8  3  1  0
  9  8  1  0
 10  9  2  0
 11  9  1  0
 12 10  1  0
 13 11  2  0
 14 13  1  0
 14 12  2  0
 15 14  1  0
 16 15  1  0
 17 16  1  0
 17 18  1  1
 19 17  1  0
 20 19  1  0
 21 20  1  0
 22 21  1  0
 23 22  2  0
 24 22  1  0
 25 23  1  0
 26 24  2  0
 27 26  1  0
 27 25  2  0
 28 27  1  0
 29 28  1  0
 30 29  1  0
 31 30  1  0
 32 31  1  0
 33 32  1  0
M  END
>  <SMILES>  (8) 
CCCCCOc1ccc(CCCC(Br)COc2ccc(Sc3ccnc(N)n3)cc2)cc1

>  <scaffold>  (8) 
pyrimidine

$$$$

     RDKit          3D

 31 32  0  0  0  0  0  0  0  0999 V2000
    0.0000   -0.0000   -0.0000 C   0  0  0  0  0  0  0  0  0  0  0  0
    0.0000    0.0000    1.3862 C   0  0  0  0  0  0  0  0  0  0  0  0
    1.2463   -0.0000    2.0966 C   0  0  0  0  0  0  0  0  0  0  0  0
    1.1398    0.1123   -0.7380 N   0  0  0  0  0  0  0  0  0  0  0  0
    2.2656    0.1676   -0.0873 C   0  0  0  0  0  0  0  0  0  0  0  0
    2.3388    0.0621    1.2459 N   0  0  0  0  0  0  0  0  0  0  0  0
    1.4515   -0.1371    3.2864 O   0  0  0  0  0  0  0  0  0  0  0  0
    3.7519    0.2482   -0.9748 S   0  0  0  0  0  0  0  0  0  0  0  0
   -1.1204   -0.1104   -0.7255 N   0  0  0  0  0  0  0  0  0  0  0  0
   -1.2198   -0.0599    2.0912 N   0  0  0  0  0  0  0  0  0  0  0  0
    3.2504    0.4369   -2.7631 C   0  0  2  0  0  0  0  0  0  0  0  0
    4.1558   -0.4077   -3.5978 C   0  0  0  0  0  0  0  0  0  0  0  0
    4.0371   -1.7951   -3.5290 C   0  0  0  0  0  0  0  0  0  0  0  0
    5.0931    0.1278   -4.4673 C   0  0  0  0  0  0  0  0  0  0  0  0
    4.8834   -2.6156   -4.2432 C   0  0  0  0  0  0  0  0  0  0  0  0
    5.9409   -0.6917   -5.1810 C   0  0  0  0  0  0  0  0  0  0  0  0
    5.8884   -2.1001   -5.0602 C   0  0  0  0  0  0  0  0  0  0  0  0
    3.4030    1.9067   -3.1156 C   0  0  0  0  0  0  0  0  0  0  0  0
    6.6269   -3.0093   -5.7564 O   0  0  0  0  0  0  0  0  0  0  0  0
    7.7314   -2.5516   -6.4888 C   0  0  0  0  0  0  0  0  0  0  0  0
    8.8992   -2.0707   -5.6289 C   0  0  0  0  0  0  0  0  0  0  0  0
   10.0536   -1.5327   -6.4729 C   0  0  0  0  0  0  0  0  0  0  0  0
   11.2698   -1.0889   -5.6615 C   0  0  0  0  0  0  0  0  0  0  0  0
   12.3723   -0.5096   -6.5465 C   0  0  0  0  0  0  0  0  0  0  0  0
   13.6340   -0.1006   -5.7881 C   0  0  0  0  0  0  0  0  0  0  0  0
   14.7464    0.5354   -6.6203 C   0  0  0  0  0  0  0  0  0  0  0  0
   16.0058    0.8757   -5.8251 C   0  0  0  0  0  0  0  0  0  0  0  0
   17.1280    1.5639   -6.6004 C   0  0  0  0  0  0  0  0  0  0  0  0
   18.3417    1.9314   -5.7481 C   0  0  0  0  0  0  0  0  0  0  0  0
   19.5149    2.5730   -6.4872 C   0  0  0  0  0  0  0  0  0  0  0  0
   20.6798    2.9706   -5.5820 C   0  0  0  0  0  0  0  0  0  0  0  0
  2  1  2  0
  3  2  1  0
  4  1  1  0
  5  4  2  0
  6  5  1  0
  6  3  1  0
  7  3  2  0
  8  5  1  0
  9  1  1  0
 10  2  1  0
 11  8  1  0
 12 11  1  0
 13 12  2  0
 14 12  1  0
 15 13  1  0
 16 14  2  0
 17 15  2  0
 17 16  1  0
 11 18  1  6
 19 17  1  0
 20 19  1  0
 21 20  1  0
 22 21  1  0
 23 22  1  0
 24 23  1  0
 25 24  1  0
 26 25  1  0
 27 26  1  0
 28 27  1  0
 29 28  1  0
 30 29  1  0
 31 30  1  0
M  END
>  <SMILES>  (9) 
CCCCCCCCCCCCOc1ccc(C(C)Sc2nc(N)c(N)c(=O)[nH]2)cc1

>  <scaffold>  (9) 
pyrimidine

$$$$

     RDKit          3D

 30 31  0  0  0  0  0  0  0  0999 V2000
    0.0000   -0.0000   -0.0000 N   0  0  0  0  0  0  0  0  0  0  0  0
   -0.0000   -0.0000    1.2941 C   0  0  0  0  0  0  0  0  0  0  0  0
    1.1543    0.0000    2.0034 N   0  0  0  0  0  0  0  0  0  0  0  0
    1.2041   -0.0000   -0.6209 C   0  0  0  0  0  0  0  0  0  0  0  0
    2.4221   -0.0000    0.0072 C   0  0  0  0  0  0  0  0  0  0  0  0
    2.4221   -0.0000    1.4500 C   0  0  0  0  0  0  0  0  0  0  0  0
    3.4073   -0.0480    2.1596 O   0  0  0  0  0  0  0  0  0  0  0  0
   -1.1786    0.0579    1.9754 N   0  0  0  0  0  0  0  0  0  0  0  0
    3.6022    0.0489   -0.6564 F   0  0  0  0  0  0  0  0  0  0  0  0
    1.0815   -0.0508   -1.9157 O   0  0  0  0  0  0  0  0  0  0  0  0
   -2.3329    0.1716    1.3057 N   0  0  0  0  0  0  0  0  0  0  0  0
   -3.4906    0.1847    1.8327 C   0  0  0  0  0  0  0  0  0  0  0  0
   -3.8303    0.0817    3.2570 C   0  0  0  0  0  0  0  0  0  0  0  0
   -4.8782    0.8403    3.7549 C   0  0  0  0  0  0  0  0  0  0  0  0
   -3.1686   -0.7381    4.1701 C   0  0  0  0  0  0  0  0  0  0  0  0
   -5.2017    0.8138    5.0944 C   0  0  0  0  0  0  0  0  0  0  0  0
   -3.4902   -0.7645    5.5019 C   0  0  0  0  0  0  0  0  0  0  0  0
   -4.4899    0.0232    6.0078 C   0  0  0  0  0  0  0  0  0  0  0  0
   -4.8148    0.0663    7.3303 O   0  0  0  0  0  0  0  0  0  0  0  0
   -3.9793   -0.5625    8.3365 C   0  0  2  0  0  0  0  0  0  0  0  0
   -4.7908   -0.7527    9.6169 C   0  0  0  0  0  0  0  0  0  0  0  0
   -2.7265    0.2657    8.6173 C   0  0  0  0  0  0  0  0  0  0  0  0
   -1.7849   -0.3814    9.6317 C   0  0  0  0  0  0  0  0  0  0  0  0
   -0.5320    0.4535    9.8346 C   0  0  0  0  0  0  0  0  0  0  0  0
    0.4688   -0.1786   10.8006 C   0  0  0  0  0  0  0  0  0  0  0  0
    1.7318    0.6718   10.9274 C   0  0  0  0  0  0  0  0  0  0  0  0
    2.7432    0.1100   11.9253 C   0  0  0  0  0  0  0  0  0  0  0  0
    3.9608    1.0238   12.0551 C   0  0  0  0  0  0  0  0  0  0  0  0
    4.9790    0.5335   13.0834 C   0  0  0  0  0  0  0  0  0  0  0  0
    6.1481    1.5084   13.2140 C   0  0  0  0  0  0  0  0  0  0  0  0
  2  1  2  0
  3  2  1  0
  4  1  1  0
  5  4  2  0
  6  5  1  0
  6  3  1  0
  7  6  2  0
  8  2  1  0
  9  5  1  0
 10  4  1  0
 11  8  1  0
 12 11  2  0
 13 12  1  0
 14 13  2  0
 15 13  1  0
 16 14  1  0
 17 15  2  0
 18 16  2  0
 18 17  1  0
 19 18  1  0
 20 19  1  0
 20 21  1  1
 22 20  1  0
 23 22  1  0
 24 23  1  0
 25 24  1  0
 26 25  1  0
 27 26  1  0
 28 27  1  0
 29 28  1  0
 30 29  1  0
M  END
>  <SMILES>  (10) 
CCCCCCCCCC(C)Oc1ccc(C=NNc2nc(O)c(F)c(=O)[nH]2)cc1

>  <scaffold>  (10) 
pyrimidine

$$$$

     RDKit          3D

 20 22  0  0  0  0  0  0  0  0999 V2000
   -0.0000    0.0000   -0.0000 C   0  0  0  0  0  0  0  0  0  0  0  0
   -0.0000   -0.0000    1.4102 C   0  0  0  0  0  0  0  0  0  0  0  0
    1.2756   -0.0000    2.0300 C   0  0  0  0  0  0  0  0  0  0  0  0
    1.1836    0.0000   -0.6104 N   0  0  0  0  0  0  0  0  0  0  0  0
    2.3030   -0.0000    0.1110 C   0  0  0  0  0  0  0  0  0  0  0  0
    2.4236    0.0000    1.4220 N   0  0  0  0  0  0  0  0  0  0  0  0
   -0.9026   -0.0507    2.4192 N   0  0  0  0  0  0  0  0  0  0  0  0
   -0.3343   -0.0684    3.5571 N   0  0  0  0  0  0  0  0  0  0  0  0
    1.0095    0.0199    3.4088 N   0  0  0  0  0  0  0  0  0  0  0  0
   -1.2041   -0.0000   -0.6209 N   0  0  0  0  0  0  0  0  0  0  0  0
   -1.4817   -0.0552   -1.9860 C   0  0  0  0  0  0  0  0  0  0  0  0
   -0.5155   -0.1226   -2.9776 C   0  0  0  0  0  0  0  0  0  0  0  0
   -2.8131    0.0136   -2.3655 C   0  0  0  0  0  0  0  0  0  0  0  0
   -0.8372   -0.1259   -4.3178 C   0  0  0  0  0  0  0  0  0  0  0  0
   -3.1271    0.0125   -3.6834 C   0  0  0  0  0  0  0  0  0  0  0  0
   -2.1685   -0.0604   -4.7263 C   0  0  0  0  0  0  0  0  0  0  0  0
   -4.4277    0.0321   -4.0025 F   0  0  0  0  0  0  0  0  0  0  0  0
   -2.5250   -0.0127   -6.0164 N   0  0  0  0  0  0  0  0  0  0  0  0
   -1.6692   -0.0852   -7.1758 C   0  0  0  0  0  0  0  0  0  0  0  0
   -1.6924   -1.4725   -7.8155 C   0  0  0  0  0  0  0  0  0  0  0  0
  2  1  1  0
  3  2  2  0
  4  1  2  0
  5  4  1  0
  6  5  2  0
  6  3  1  0
  7  2  1  0
  8  7  2  0
  9  8  1  0
  9  3  1  0
 10  1  1  0
 11 10  1  0
 12 11  2  0
 13 11  1  0
 14 12  1  0
 15 13  2  0
 16 15  1  0
 16 14  2  0
 17 15  1  0
 18 16  1  0
 19 18  1  0
 20 19  1  0
M  END
>  <SMILES>  (11) 
CCNc1ccc(Nc2ncnc3[nH]nnc23)cc1F

>  <scaffold>  (11) 
pyrimidine

$$$$

     RDKit          3D

 28 29  0  0  0  0  0  0  0  0999 V2000
    0.0000    0.0000   -0.0000 N   0  0  0  0  0  0  0  0  0  0  0  0
   -0.0000    0.0000    1.3393 C   0  0  0  0  0  0  0  0  0  0  0  0
    1.0863   -0.0000    2.1096 N   0  0  0  0  0  0  0  0  0  0  0  0
    1.1954   -0.0587   -0.5486 C   0  0  0  0  0  0  0  0  0  0  0  0
    2.3890   -0.0587    0.1406 C   0  0  0  0  0  0  0  0  0  0  0  0
    2.3262    0.0097    1.5477 C   0  0  0  0  0  0  0  0  0  0  0  0
   -1.2231   -0.0601    1.9006 N   0  0  0  0  0  0  0  0  0  0  0  0
    3.4185    0.0688    2.3205 N   0  0  0  0  0  0  0  0  0  0  0  0
    3.4889    0.1968    3.7476 C   0  0  0  0  0  0  0  0  0  0  0  0
    3.9101   -0.2109   -0.7377 S   0  0  0  0  0  6  0  0  0  0  0  0
    4.9024    0.6914   -0.2057 O   0  0  0  0  0  0  0  0  0  0  0  0
    3.6141   -0.1597   -2.1489 O   0  0  0  0  0  0  0  0  0  0  0  0
    4.4621   -1.7900   -0.4162 N   0  0  0  0  0  0  0  0  0  0  0  0
    3.6767   -2.7722   -1.1235 C   0  0  0  0  0  0  0  0  0  0  0  0
    5.8903   -1.9892   -0.5783 C   0  0  0  0  0  0  0  0  0  0  0  0
    6.4653   -3.2622   -0.0266 C   0  0  0  0  0  0  0  0  0  0  0  0
    7.0620   -4.2585   -0.7834 C   0  0  0  0  0  0  0  0  0  0  0  0
    6.2906   -3.5064    1.3348 C   0  0  0  0  0  0  0  0  0  0  0  0
    7.5320   -5.4334   -0.2373 C   0  0  0  0  0  0  0  0  0  0  0  0
    6.7527   -4.6712    1.8698 C   0  0  0  0  0  0  0  0  0  0  0  0
    7.4152   -5.6560    1.1340 C   0  0  0  0  0  0  0  0  0  0  0  0
    7.8210   -6.8219    1.7106 N   0  0  0  0  0  0  0  0  0  0  0  0
    8.5852   -7.8901    1.1133 C   0  0  2  0  0  0  0  0  0  0  0  0
    7.9283   -9.2394    1.3999 C   0  0  0  0  0  0  0  0  0  0  0  0
   10.0287   -7.8840    1.6141 C   0  0  0  0  0  0  0  0  0  0  0  0
   10.7688   -6.6109    1.2069 C   0  0  0  0  0  0  0  0  0  0  0  0
   12.1617   -6.5944    1.8556 C   0  0  0  0  0  0  0  0  0  0  0  0
   12.8781   -5.3333    1.3752 C   0  0  0  0  0  0  0  0  0  0  0  0
  2  1  2  0
  3  2  1  0
  4  1  1  0
  5  4  2  0
  6  5  1  0
  6  3  2  0
  7  2  1  0
  8  6  1  0
  9  8  1  0
 10  5  1  0
 11 10  2  0
 12 10  2  0
 13 10  1  0
 14 13  1  0
 15 13  1  0
 16 15  1  0
 17 16  2  0
 18 16  1  0
 19 17  1  0
 20 18  2  0
 21 19  2  0
 21 20  1  0
 22 21  1  0
 23 22  1  0
 23 24  1  1
 25 23  1  0
 26 25  1  0
 27 26  1  0
 28 27  1  0
M  END
>  <SMILES>  (12) 
CCCCC(C)Nc1ccc(CN(C)S(=O)(=O)c2cnc(N)nc2NC)cc1

>  <scaffold>  (12) 
pyrimidine

$$$$

     RDKit          3D

 18 19  0  0  0  0  0  0  0  0999 V2000
   -0.0000    0.0000   -0.0000 N   0  0  0  0  0  0  0  0  0  0  0  0
   -0.0000    0.0000    1.3625 C   0  0  0  0  0  0  0  0  0  0  0  0
    1.0377   -0.0000    2.0984 N   0  0  0  0  0  0  0  0  0  0  0  0
    1.2261    0.1208   -0.6353 C   0  0  0  0  0  0  0  0  0  0  0  0
    2.3714    0.1208    0.1027 C   0  0  0  0  0  0  0  0  0  0  0  0
    2.3807   -0.0005    1.5404 C   0  0  0  0  0  0  0  0  0  0  0  0
    3.3795   -0.0485    2.2307 O   0  0  0  0  0  0  0  0  0  0  0  0
    1.1595    0.2454   -2.0143 N   0  0  0  0  0  0  0  0  0  0  0  0
   -1.2338   -0.0606   -0.7132 C   0  0  0  0  0  0  0  0  0  0  0  0
   -1.7216    1.1170   -1.2974 C   0  0  0  0  0  0  0  0  0  0  0  0
   -1.9418   -1.2417   -0.7706 C   0  0  0  0  0  0  0  0  0  0  0  0
   -2.9404    1.0205   -1.9336 C   0  0  0  0  0  0  0  0  0  0  0  0
   -3.1755   -1.3367   -1.4128 C   0  0  0  0  0  0  0  0  0  0  0  0
   -3.7074   -0.1432   -1.9659 C   0  0  0  0  0  0  0  0  0  0  0  0
   -4.9230   -0.1774   -2.5630 F   0  0  0  0  0  0  0  0  0  0  0  0
   -3.7373   -2.5490   -1.3205 O   0  0  0  0  0  0  0  0  0  0  0  0
   -4.9316   -2.8369   -2.0613 C   0  0  0  0  0  0  0  0  0  0  0  0
   -4.6363   -3.0862   -3.5394 C   0  0  0  0  0  0  0  0  0  0  0  0
  2  1  1  0
  3  2  2  0
  4  1  1  0
  5  4  2  0
  6  5  1  0
  6  3  1  0
  7  6  2  0
  8  4  1  0
  9  1  1  0
 10  9  2  0
 11  9  1  0
 12 10  1  0
 13 11  2  0
 14 13  1  0
 14 12  2  0
 15 14  1  0
 16 13  1  0
 17 16  1  0
 18 17  1  0
M  END
>  <SMILES>  (13) 
CCOc1cc(-n2cnc(=O)cc2N)ccc1F

>  <scaffold>  (13) 
pyrimidine

$$$$

     RDKit          3D

 24 25  0  0  0  0  0  0  0  0999 V2000
   -0.0000   -0.0000   -0.0000 N   0  0  0  0  0  0  0  0  0  0  0  0
    0.0000   -0.0000    1.3241 C   0  0  0  0  0  0  0  0  0  0  0  0
    1.0926   -0.0000    2.0721 N   0  0  0  0  0  0  0  0  0  0  0  0
    1.1712   -0.1153   -0.6069 C   0  0  0  0  0  0  0  0  0  0  0  0
    2.3931   -0.2966    0.1063 C   0  0  0  0  0  0  0  0  0  0  0  0
    2.2700   -0.1124    1.4908 C   0  0  0  0  0  0  0  0  0  0  0  0
   -1.5402   -0.0000    2.1184 S   0  0  0  0  0  0  0  0  0  0  0  0
    3.3785   -0.1113    2.2697 N   0  0  0  0  0  0  0  0  0  0  0  0
    1.1286   -0.0634   -1.9217 O   0  0  0  0  0  0  0  0  0  0  0  0
   -2.6736   -0.0686    0.7034 C   0  0  0  0  0  0  0  0  0  0  0  0
   -0.1165    0.1620   -2.5623 C   0  0  0  0  0  0  0  0  0  0  0  0
    3.6328   -0.6314   -0.4957 N   0  0  0  0  0  0  0  0  0  0  0  0
    3.7720   -1.8187   -1.1495 C   0  0  0  0  0  0  0  0  0  0  0  0
    2.8555   -2.5833   -1.4120 O   0  0  0  0  0  0  0  0  0  0  0  0
    5.1638   -2.0953   -1.5865 C   0  0  0  0  0  0  0  0  0  0  0  0
    5.4395   -3.4458   -1.7952 C   0  0  0  0  0  0  0  0  0  0  0  0
    6.1261   -1.1251   -1.8194 C   0  0  0  0  0  0  0  0  0  0  0  0
    6.6830   -3.8234   -2.2542 C   0  0  0  0  0  0  0  0  0  0  0  0
    7.3705   -1.5048   -2.2742 C   0  0  0  0  0  0  0  0  0  0  0  0
    7.7031   -2.9133   -2.5277 C   0  0  0  0  0  0  0  0  0  0  0  0
    8.9217   -3.3364   -3.0350 N   0  0  0  0  0  0  0  0  0  0  0  0
   10.0862   -2.6550   -3.2249 C   0  0  0  0  0  0  0  0  0  0  0  0
   10.2402   -1.4681   -3.0147 O   0  0  0  0  0  0  0  0  0  0  0  0
   11.1816   -3.5109   -3.7464 C   0  0  0  0  0  0  0  0  0  0  0  0
  2  1  2  0
  3  2  1  0
  4  1  1  0
  5  4  2  0
  6  5  1  0
  6  3  2  0
  7  2  1  0
  8  6  1  0
  9  4  1  0
 10  7  1  0
 11  9  1  0
 12  5  1  0
 13 12  1  0
 14 13  2  0
 15 13  1  0
 16 15  2  0
 17 15  1  0
 18 16  1  0
 19 17  2  0
 20 19  1  0
 20 18  2  0
 21 20  1  0
 22 21  1  0
 23 22  2  0
 24 22  1  0
M  END
>  <SMILES>  (14) 
COc1nc(SC)nc(N)c1NC(=O)c1ccc(NC(C)=O)cc1

>  <scaffold>  (14) 
pyrimidine

$$$$

     RDKit          3D

 30 31  0  0  0  0  0  0  0  0999 V2000
    0.0000    0.0000    0.0000 N   0  0  0  0  0  0  0  0  0  0  0  0
   -0.0000   -0.0000    1.3625 C   0  0  0  0  0  0  0  0  0  0  0  0
    1.0377   -0.0000    2.0984 N   0  0  0  0  0  0  0  0  0  0  0  0
    1.2191   -0.1201   -0.6317 C   0  0  0  0  0  0  0  0  0  0  0  0
    2.3579   -0.1201    0.1021 C   0  0  0  0  0  0  0  0  0  0  0  0
    2.2947   -0.0562    1.5422 C   0  0  0  0  0  0  0  0  0  0  0  0
    3.2502   -0.0030    2.2910 O   0  0  0  0  0  0  0  0  0  0  0  0
   -1.2409    0.0610   -0.7173 C   0  0  0  0  0  0  0  0  0  0  0  0
    1.1558   -0.2384   -1.9414 O   0  0  0  0  0  0  0  0  0  0  0  0
   -1.8174   -1.3309   -0.9719 C   0  0  0  0  0  0  0  0  0  0  0  0
   -1.2874   -2.3846   -0.7840 O   0  0  0  0  0  0  0  0  0  0  0  0
   -3.0504   -1.2130   -1.4611 O   0  0  0  0  0  0  0  0  0  0  0  0
   -3.7776   -2.4046   -1.7118 C   0  0  0  0  0  0  0  0  0  0  0  0
   -4.7362   -2.7467   -0.5841 C   0  0  0  0  0  0  0  0  0  0  0  0
   -5.4961   -4.0375   -0.7786 C   0  0  0  0  0  0  0  0  0  0  0  0
   -6.1263   -4.3834   -1.9638 C   0  0  0  0  0  0  0  0  0  0  0  0
   -5.6432   -4.9107    0.2879 C   0  0  0  0  0  0  0  0  0  0  0  0
   -6.8541   -5.5575   -2.0793 C   0  0  0  0  0  0  0  0  0  0  0  0
   -6.3782   -6.0894    0.1698 C   0  0  0  0  0  0  0  0  0  0  0  0
   -6.9804   -6.4289   -1.0189 C   0  0  0  0  0  0  0  0  0  0  0  0
   -6.4849   -7.2761    1.6488 Br  0  0  0  0  0  0  0  0  0  0  0  0
   -7.7207   -7.5623   -1.0706 O   0  0  0  0  0  0  0  0  0  0  0  0
   -8.1588   -8.0799   -2.3163 C   0  0  0  0  0  0  0  0  0  0  0  0
   -8.7245   -9.4760   -2.1200 C   0  0  0  0  0  0  0  0  0  0  0  0
   -9.1615  -10.1009   -3.4440 C   0  0  0  0  0  0  0  0  0  0  0  0
   -9.7714  -11.4779   -3.1860 C   0  0  0  0  0  0  0  0  0  0  0  0
  -10.1758  -12.1697   -4.4868 C   0  0  0  0  0  0  0  0  0  0  0  0
  -10.7247  -13.5526   -4.1802 C   0  0  0  0  0  0  0  0  0  0  0  0
  -11.0938  -14.3091   -5.4553 C   0  0  0  0  0  0  0  0  0  0  0  0
  -11.5877  -15.7095   -5.0957 C   0  0  0  0  0  0  0  0  0  0  0  0
  2  1  1  0
  3  2  2  0
  4  1  1  0
  5  4  2  0
  6  5  1  0
  6  3  1  0
  7  6  2  0
  8  1  1  0
  9  4  1  0
 10  8  1  0
 11 10  2  0
 12 10  1  0
 13 12  1  0
 14 13  1  0
 15 14  1  0
 16 15  2  0
 17 15  1  0
 18 16  1  0
 19 17  2  0
 20 19  1  0
 20 18  2  0
 21 19  1  0
 22 20  1  0
 23 22  1  0
 24 23  1  0
 25 24  1  0
 26 25  1  0
 27 26  1  0
 28 27  1  0
 29 28  1  0
 30 29  1  0
M  END
>  <SMILES>  (15) 
CCCCCCCCOc1ccc(CCOC(=O)Cn2cnc(=O)cc2O)cc1Br

>  <scaffold>  (15) 
pyrimidine

$$$$

     RDKit          3D

 27 28  0  0  0  0  0  0  0  0999 V2000
   -0.0000    0.0000    0.0000 C   0  0  0  0  0  0  0  0  0  0  0  0
   -0.0000    0.0000    1.4021 C   0  0  0  0  0  0  0  0  0  0  0  0
    1.2416   -0.0000    2.1372 C   0  0  0  0  0  0  0  0  0  0  0  0
    1.1672   -0.1731   -0.6813 N   0  0  0  0  0  0  0  0  0  0  0  0
    2.4048   -0.2339   -0.0423 C   0  0  0  0  0  0  0  0  0  0  0  0
    2.4243   -0.0556    1.3084 N   0  0  0  0  0  0  0  0  0  0  0  0
    3.4122   -0.4317   -0.6793 O   0  0  0  0  0  0  0  0  0  0  0  0
    1.3727    0.1312    3.3381 O   0  0  0  0  0  0  0  0  0  0  0  0
    1.2028   -0.3150   -2.1084 C   0  0  0  0  0  0  0  0  0  0  0  0
    1.7755    0.6823   -2.8823 C   0  0  0  0  0  0  0  0  0  0  0  0
    0.6823   -1.4491   -2.7119 C   0  0  0  0  0  0  0  0  0  0  0  0
    1.8778    0.5661   -4.2677 C   0  0  0  0  0  0  0  0  0  0  0  0
    0.7837   -1.5638   -4.0896 C   0  0  0  0  0  0  0  0  0  0  0  0
    1.3709   -0.6055   -4.8079 C   0  0  0  0  0  0  0  0  0  0  0  0
    0.2703   -2.5922   -4.7919 O   0  0  0  0  0  0  0  0  0  0  0  0
   -0.4835   -3.6273   -4.1632 C   0  0  0  0  0  0  0  0  0  0  0  0
    3.6892    0.0252    1.9978 C   0  0  0  0  0  0  0  0  0  0  0  0
   -1.1474    0.1702   -0.6697 N   0  0  0  0  0  0  0  0  0  0  0  0
    0.4519   -4.6338   -3.4952 C   0  0  0  0  0  0  0  0  0  0  0  0
   -0.3996   -5.7465   -2.8860 C   0  0  0  0  0  0  0  0  0  0  0  0
    0.4880   -6.7537   -2.1565 C   0  0  0  0  0  0  0  0  0  0  0  0
   -0.4029   -7.8703   -1.6145 C   0  0  0  0  0  0  0  0  0  0  0  0
    0.4458   -8.9348   -0.9209 C   0  0  0  0  0  0  0  0  0  0  0  0
   -0.4935   -9.9968   -0.3513 C   0  0  0  0  0  0  0  0  0  0  0  0
    0.3117  -11.1158    0.3075 C   0  0  0  0  0  0  0  0  0  0  0  0
   -0.6682  -12.1746    0.8106 C   0  0  0  0  0  0  0  0  0  0  0  0
    0.0925  -13.3452    1.4315 C   0  0  0  0  0  0  0  0  0  0  0  0
  2  1  2  0
  3  2  1  0
  4  1  1  0
  5  4  1  0
  6  5  1  0
  6  3  1  0
  7  5  2  0
  8  3  2  0
  9  4  1  0
 10  9  2  0
 11  9  1  0
 12 10  1  0
 13 11  2  0
 14 13  1  0
 14 12  2  0
 15 13  1  0
 16 15  1  0
 17  6  1  0
 18  1  1  0
 19 16  1  0
 20 19  1  0
 21 20  1  0
 22 21  1  0
 23 22  1  0
 24 23  1  0
 25 24  1  0
 26 25  1  0
 27 26  1  0
M  END
>  <SMILES>  (16) 
CCCCCCCCCCOc1cccc(-n2c(N)cc(=O)n(C)c2=O)c1

>  <scaffold>  (16) 
pyrimidine

$$$$

     RDKit          3D

 26 27  0  0  0  0  0  0  0  0999 V2000
   -0.0000   -0.0000    0.0000 C   0  0  0  0  0  0  0  0  0  0  0  0
    0.0000    0.0000    1.3704 C   0  0  0  0  0  0  0  0  0  0  0  0
    1.2763    0.0000    2.0433 C   0  0  0  0  0  0  0  0  0  0  0  0
    1.0947    0.1624   -0.7948 N   0  0  0  0  0  0  0  0  0  0  0  0
    2.2325    0.3312   -0.2017 C   0  0  0  0  0  0  0  0  0  0  0  0
    2.3720    0.2940    1.1376 N   0  0  0  0  0  0  0  0  0  0  0  0
    1.4803   -0.1363    3.2263 O   0  0  0  0  0  0  0  0  0  0  0  0
    3.3613    0.4489   -0.9555 N   0  0  0  0  0  0  0  0  0  0  0  0
   -1.1408   -0.1692   -0.6658 O   0  0  0  0  0  0  0  0  0  0  0  0
   -1.2409   -0.0000    2.1700 C   0  0  0  0  0  0  0  0  0  0  0  0
   -1.3950   -0.9067    3.1965 C   0  0  0  0  0  0  0  0  0  0  0  0
   -2.2595    0.9231    1.9377 C   0  0  0  0  0  0  0  0  0  0  0  0
   -2.5558   -0.8362    3.9508 C   0  0  0  0  0  0  0  0  0  0  0  0
   -3.4059    0.9927    2.6851 C   0  0  0  0  0  0  0  0  0  0  0  0
   -3.5214    0.1466    3.7381 C   0  0  0  0  0  0  0  0  0  0  0  0
   -2.6863   -1.7825    4.9225 F   0  0  0  0  0  0  0  0  0  0  0  0
   -4.6461    0.2837    4.4809 O   0  0  0  0  0  0  0  0  0  0  0  0
   -5.2116   -0.7816    5.2425 C   0  0  0  0  0  0  0  0  0  0  0  0
   -5.7721   -1.8899    4.3676 C   0  0  0  0  0  0  0  0  0  0  0  0
   -6.9254   -1.3851    3.5019 C   0  0  0  0  0  0  0  0  0  0  0  0
   -7.3531   -2.4972    2.5455 C   0  0  0  0  0  0  0  0  0  0  0  0
   -8.4708   -2.0236    1.6177 C   0  0  0  0  0  0  0  0  0  0  0  0
   -8.8984   -3.1850    0.7218 C   0  0  0  0  0  0  0  0  0  0  0  0
   -9.9685   -2.6497   -0.2142 C   0  0  0  0  0  0  0  0  0  0  0  0
  -10.4703   -3.7904   -1.0981 C   0  0  0  0  0  0  0  0  0  0  0  0
  -11.5780   -3.2146   -1.9788 C   0  0  0  0  0  0  0  0  0  0  0  0
  2  1  2  0
  3  2  1  0
  4  1  1  0
  5  4  2  0
  6  5  1  0
  6  3  1  0
  7  3  2  0
  8  5  1  0
  9  1  1  0
 10  2  1  0
 11 10  2  0
 12 10  1  0
 13 11  1  0
 14 12  2  0
 15 14  1  0
 15 13  2  0
 16 13  1  0
 17 15  1  0
 18 17  1  0
 19 18  1  0
 20 19  1  0
 21 20  1  0
 22 21  1  0
 23 22  1  0
 24 23  1  0
 25 24  1  0
 26 25  1  0
M  END
>  <SMILES>  (17) 
CCCCCCCCCOc1ccc(-c2c(O)nc(N)[nH]c2=O)cc1F

>  <scaffold>  (17) 
pyrimidine

$$$$

     RDKit          3D

 16 17  0  0  0  0  0  0  0  0999 V2000
   -0.0000    0.0000    0.0000 C   0  0  0  0  0  0  0  0  0  0  0  0
   -0.0000    0.0000    1.3862 C   0  0  0  0  0  0  0  0  0  0  0  0
    1.2332    0.0000    2.0364 C   0  0  0  0  0  0  0  0  0  0  0  0
    1.1194   -0.0000   -0.7213 N   0  0  0  0  0  0  0  0  0  0  0  0
    2.2324    0.0000   -0.0041 C   0  0  0  0  0  0  0  0  0  0  0  0
    2.3597   -0.0000    1.3138 N   0  0  0  0  0  0  0  0  0  0  0  0
    1.2807   -0.0475    3.3512 O   0  0  0  0  0  0  0  0  0  0  0  0
    3.3181    0.0478   -0.7606 O   0  0  0  0  0  0  0  0  0  0  0  0
    2.5037   -0.1004    4.0511 C   0  0  0  0  0  0  0  0  0  0  0  0
    3.1114    1.2396    4.3927 C   0  0  0  0  0  0  0  0  0  0  0  0
    4.2062    1.2437    5.2558 C   0  0  0  0  0  0  0  0  0  0  0  0
    2.6182    2.3955    3.8464 C   0  0  0  0  0  0  0  0  0  0  0  0
    4.7661    2.4531    5.6369 C   0  0  0  0  0  0  0  0  0  0  0  0
    3.1797    3.6126    4.2300 C   0  0  0  0  0  0  0  0  0  0  0  0
    4.2116    3.6514    5.2150 C   0  0  0  0  0  0  0  0  0  0  0  0
    2.6345    4.7186    3.7070 F   0  0  0  0  0  0  0  0  0  0  0  0
  2  1  2  0
  3  2  1  0
  4  1  1  0
  5  4  2  0
  6  5  1  0
  6  3  2  0
  7  3  1  0
  8  5  1  0
  9  7  1  0
 10  9  1  0
 11 10  2  0
 12 10  1  0
 13 11  1  0
 14 12  2  0
 15 14  1  0
 15 13  2  0
 16 14  1  0
M  END
>  <SMILES>  (18) 
Oc1nccc(OCc2cccc(F)c2)n1

>  <scaffold>  (18) 
pyrimidine

$$$$

     RDKit          3D

 13 14  0  0  0  0  0  0  0  0999 V2000
    0.0000    0.0000    0.0000 N   0  0  0  0  0  0  0  0  0  0  0  0
    0.0000   -0.0000    1.3317 C   0  0  0  0  0  0  0  0  0  0  0  0
    1.0423   -0.0000    2.1236 N   0  0  0  0  0  0  0  0  0  0  0  0
    1.1768   -0.0000   -0.6069 C   0  0  0  0  0  0  0  0  0  0  0  0
    2.3554    0.0000    0.1526 C   0  0  0  0  0  0  0  0  0  0  0  0
    2.2206    0.0000    1.5482 C   0  0  0  0  0  0  0  0  0  0  0  0
    4.0313    0.0690   -0.3211 S   0  0  0  0  0  0  0  0  0  0  0  0
    3.5081    0.0566    2.2153 C   0  0  0  0  0  0  0  0  0  0  0  0
    4.4925    0.0729    1.3597 C   0  0  0  0  0  0  0  0  0  0  0  0
    1.2249    0.0480   -1.9368 O   0  0  0  0  0  0  0  0  0  0  0  0
    3.5807    0.0113    3.5751 O   0  0  0  0  0  0  0  0  0  0  0  0
    5.7639    0.1702    1.7439 O   0  0  0  0  0  0  0  0  0  0  0  0
    0.0202    0.1603   -2.7078 C   0  0  0  0  0  0  0  0  0  0  0  0
  2  1  2  0
  3  2  1  0
  4  1  1  0
  5  4  2  0
  6  5  1  0
  6  3  2  0
  7  5  1  0
  8  6  1  0
  9  8  2  0
  9  7  1  0
 10  4  1  0
 11  8  1  0
 12  9  1  0
 13 10  1  0
M  END
>  <SMILES>  (19) 
COc1ncnc2c(O)c(O)sc12

>  <scaffold>  (19) 
pyrimidine

$$$$

     RDKit          3D

 22 24  0  0  0  0  0  0  0  0999 V2000
   -0.0000   -0.0000    0.0000 N   0  0  0  0  0  0  0  0  0  0  0  0
    0.0000    0.0000    1.3317 C   0  0  0  0  0  0  0  0  0  0  0  0
    1.0233    0.0000    2.1360 N   0  0  0  0  0  0  0  0  0  0  0  0
    1.1768    0.0000   -0.6069 C   0  0  0  0  0  0  0  0  0  0  0  0
    2.3897   -0.0000    0.1747 C   0  0  0  0  0  0  0  0  0  0  0  0
    2.2533   -0.0000    1.5864 C   0  0  0  0  0  0  0  0  0  0  0  0
    3.6899    0.0547   -0.3473 C   0  0  0  0  0  0  0  0  0  0  0  0
    3.3543    0.0547    2.4529 C   0  0  0  0  0  0  0  0  0  0  0  0
    4.7524    0.1014    0.4920 C   0  0  0  0  0  0  0  0  0  0  0  0
    4.5780    0.1084    1.8211 C   0  0  0  0  0  0  0  0  0  0  0  0
    1.2257   -0.0489   -1.9599 N   0  0  0  0  0  0  0  0  0  0  0  0
    0.2218   -0.0389   -2.9042 C   0  0  0  0  0  0  0  0  0  0  0  0
   -1.1079    0.2249   -2.6147 C   0  0  0  0  0  0  0  0  0  0  0  0
    0.5755   -0.2591   -4.2262 C   0  0  0  0  0  0  0  0  0  0  0  0
   -2.0166    0.2583   -3.6609 C   0  0  0  0  0  0  0  0  0  0  0  0
   -0.3340   -0.2199   -5.2715 C   0  0  0  0  0  0  0  0  0  0  0  0
   -1.6861    0.0444   -4.9899 C   0  0  0  0  0  0  0  0  0  0  0  0
    5.8879    0.2360    2.9331 Cl  0  0  0  0  0  0  0  0  0  0  0  0
    0.1571   -0.4062   -6.5716 N   0  0  0  0  0  0  0  0  0  0  0  0
   -0.5211   -0.4662   -7.7429 C   0  0  0  0  0  0  0  0  0  0  0  0
   -1.7213   -0.3600   -7.8314 O   0  0  0  0  0  0  0  0  0  0  0  0
    0.3640   -0.7132   -8.7490 O   0  0  0  0  0  0  0  0  0  0  0  0
  2  1  2  0
  3  2  1  0
  4  1  1  0
  5  4  2  0
  6  5  1  0
  6  3  2  0
  7  5  1  0
  8  6  1  0
  9  7  2  0
 10  9  1  0
 10  8  2  0
 11  4  1  0
 12 11  1  0
 13 12  2  0
 14 12  1  0
 15 13  1  0
 16 14  2  0
 17 16  1  0
 17 15  2  0
 18 10  1  0
 19 16  1  0
 20 19  1  0
 21 20  2  0
 22 20  1  0
M  END
>  <SMILES>  (20) 
O=C(O)Nc1cccc(Nc2ncnc3cc(Cl)ccc23)c1

>  <scaffold>  (20) 
pyrimidine

$$$$

     RDKit          3D

 21 23  0  0  0  0  0  0  0  0999 V2000
    0.0000    0.0000   -0.0000 N   0  0  0  0  0  0  0  0  0  0  0  0
    0.0000   -0.0000    1.3393 C   0  0  0  0  0  0  0  0  0  0  0  0
    1.0364   -0.0000    2.1267 N   0  0  0  0  0  0  0  0  0  0  0  0
    1.1768   -0.0000   -0.6069 C   0  0  0  0  0  0  0  0  0  0  0  0
    2.3827   -0.0000    0.1702 C   0  0  0  0  0  0  0  0  0  0  0  0
    2.2464    0.0000    1.5819 C   0  0  0  0  0  0  0  0  0  0  0  0
    3.6829    0.0547   -0.3517 C   0  0  0  0  0  0  0  0  0  0  0  0
    3.3537   -0.0550    2.4534 C   0  0  0  0  0  0  0  0  0  0  0  0
    4.7666   -0.0052    0.4977 C   0  0  0  0  0  0  0  0  0  0  0  0
    4.5774   -0.1087    1.8216 C   0  0  0  0  0  0  0  0  0  0  0  0
    5.6132   -0.2096    2.7010 O   0  0  0  0  0  0  0  0  0  0  0  0
    1.1282   -0.0486   -1.9522 N   0  0  0  0  0  0  0  0  0  0  0  0
   -0.0268   -0.0988   -2.7737 C   0  0  1  0  0  0  0  0  0  0  0  0
   -0.1424    1.1065   -3.7054 C   0  0  0  0  0  0  0  0  0  0  0  0
   -0.1591   -1.4079   -3.5503 C   0  0  0  0  0  0  0  0  0  0  0  0
   -0.4276   -2.6283   -2.6559 C   0  0  0  0  0  0  0  0  0  0  0  0
   -0.6843   -3.8441   -3.4686 C   0  0  0  0  0  0  0  0  0  0  0  0
   -1.8431   -4.2505   -4.0769 C   0  0  0  0  0  0  0  0  0  0  0  0
    0.6199   -4.9010   -3.8989 S   0  0  0  0  0  0  0  0  0  0  0  0
   -1.7302   -5.4335   -4.8210 C   0  0  0  0  0  0  0  0  0  0  0  0
   -0.4478   -5.8946   -4.7976 C   0  0  0  0  0  0  0  0  0  0  0  0
  2  1  2  0
  3  2  1  0
  4  1  1  0
  5  4  2  0
  6  5  1  0
  6  3  2  0
  7  5  1  0
  8  6  1  0
  9  7  2  0
 10  9  1  0
 10  8  2  0
 11 10  1  0
 12  4  1  0
 13 12  1  0
 13 14  1  6
 15 13  1  0
 16 15  1  0
 17 16  1  0
 18 17  2  0
 19 17  1  0
 20 18  1  0
 21 20  2  0
 21 19  1  0
M  END
>  <SMILES>  (21) 
CC(CCc1cccs1)Nc1ncnc2cc(O)ccc12

>  <scaffold>  (21) 
pyrimidine

$$$$

     RDKit          3D

 26 27  0  0  0  0  0  0  0  0999 V2000
   -0.0000   -0.0000    0.0000 C   0  0  0  0  0  0  0  0  0  0  0  0
    0.0000   -0.0000    1.3862 C   0  0  0  0  0  0  0  0  0  0  0  0
    1.2535   -0.0000    2.1007 C   0  0  0  0  0  0  0  0  0  0  0  0
    1.1269    0.1110   -0.7296 N   0  0  0  0  0  0  0  0  0  0  0  0
    2.2847    0.2250   -0.1297 C   0  0  0  0  0  0  0  0  0  0  0  0
    2.3550    0.1744    1.2146 N   0  0  0  0  0  0  0  0  0  0  0  0
    1.4306   -0.0475    3.2879 O   0  0  0  0  0  0  0  0  0  0  0  0
   -1.1269   -0.1110   -0.7296 O   0  0  0  0  0  0  0  0  0  0  0  0
    3.4184    0.3850   -0.8097 N   0  0  0  0  0  0  0  0  0  0  0  0
   -1.2268    0.0603    2.0953 N   0  0  0  0  0  0  0  0  0  0  0  0
   -1.7897    1.6335    2.3058 S   0  0  0  0  0  6  0  0  0  0  0  0
   -2.8777    1.5478    3.2242 O   0  0  0  0  0  0  0  0  0  0  0  0
   -1.9550    2.2320    1.0126 O   0  0  0  0  0  0  0  0  0  0  0  0
   -0.4377    2.5271    3.0741 C   0  0  0  0  0  0  0  0  0  0  0  0
    0.3840    3.3542    2.3243 C   0  0  0  0  0  0  0  0  0  0  0  0
   -0.1946    2.3119    4.4136 C   0  0  0  0  0  0  0  0  0  0  0  0
    1.4400    3.9819    2.9491 C   0  0  0  0  0  0  0  0  0  0  0  0
    0.8700    2.9422    5.0386 C   0  0  0  0  0  0  0  0  0  0  0  0
    1.6537    3.8440    4.3198 C   0  0  0  0  0  0  0  0  0  0  0  0
    3.0871    4.7895    5.1313 Br  0  0  0  0  0  0  0  0  0  0  0  0
    1.1223    2.7963    6.3857 N   0  0  0  0  0  0  0  0  0  0  0  0
    0.3180    2.3602    7.4270 C   0  0  0  0  0  0  0  0  0  0  0  0
    0.8250    2.0384    8.4753 O   0  0  0  0  0  0  0  0  0  0  0  0
   -0.9868    2.3645    7.1609 O   0  0  0  0  0  0  0  0  0  0  0  0
   -1.9337    1.9859    8.1816 C   0  0  0  0  0  0  0  0  0  0  0  0
   -1.7575    0.5182    8.5679 C   0  0  0  0  0  0  0  0  0  0  0  0
  2  1  2  0
  3  2  1  0
  4  1  1  0
  5  4  2  0
  6  5  1  0
  6  3  1  0
  7  3  2  0
  8  1  1  0
  9  5  1  0
 10  2  1  0
 11 10  1  0
 12 11  2  0
 13 11  2  0
 14 11  1  0
 15 14  2  0
 16 14  1  0
 17 15  1  0
 18 16  2  0
 19 18  1  0
 19 17  2  0
 20 19  1  0
 21 18  1  0
 22 21  1  0
 23 22  2  0
 24 22  1  0
 25 24  1  0
 26 25  1  0
M  END
>  <SMILES>  (22) 
CCOC(=O)Nc1cc(S(=O)(=O)Nc2c(O)nc(N)[nH]c2=O)ccc1Br

>  <scaffold>  (22) 
pyrimidine

$$$$

     RDKit          3D

 26 27  0  0  0  0  0  0  0  0999 V2000
   -0.0000   -0.0000   -0.0000 N   0  0  0  0  0  0  0  0  0  0  0  0
    0.0000    0.0000    1.3165 C   0  0  0  0  0  0  0  0  0  0  0  0
    1.0674    0.0000    2.1001 N   0  0  0  0  0  0  0  0  0  0  0  0
    1.1836    0.0000   -0.6104 C   0  0  0  0  0  0  0  0  0  0  0  0
    2.3488    0.0000    0.1405 C   0  0  0  0  0  0  0  0  0  0  0  0
    2.2808    0.0603    1.5558 C   0  0  0  0  0  0  0  0  0  0  0  0
   -1.1768    0.0000    1.9234 O   0  0  0  0  0  0  0  0  0  0  0  0
    3.5979   -0.0525   -0.3610 O   0  0  0  0  0  0  0  0  0  0  0  0
    3.7319   -0.1121   -1.7554 C   0  0  0  0  0  0  0  0  0  0  0  0
    3.3994    0.1118    2.3322 N   0  0  0  0  0  0  0  0  0  0  0  0
    3.6115    0.2306    3.7130 C   0  0  0  0  0  0  0  0  0  0  0  0
    4.7272    0.3039    4.1889 O   0  0  0  0  0  0  0  0  0  0  0  0
    2.5230    0.1298    4.5001 N   0  0  0  0  0  0  0  0  0  0  0  0
    2.6537    0.4537    5.9000 C   0  0  0  0  0  0  0  0  0  0  0  0
    2.1187    1.8616    6.0987 C   0  0  0  0  0  0  0  0  0  0  0  0
    0.7600    2.1673    6.0351 C   0  0  0  0  0  0  0  0  0  0  0  0
    2.9413    2.9368    6.4317 C   0  0  0  0  0  0  0  0  0  0  0  0
    0.2331    3.4347    6.1595 C   0  0  0  0  0  0  0  0  0  0  0  0
    2.4206    4.1986    6.5529 C   0  0  0  0  0  0  0  0  0  0  0  0
    1.1172    4.4930    6.3640 C   0  0  0  0  0  0  0  0  0  0  0  0
    0.7178    5.7657    6.5519 O   0  0  0  0  0  0  0  0  0  0  0  0
   -0.6325    6.2111    6.4383 C   0  0  0  0  0  0  0  0  0  0  0  0
   -1.0504    6.2965    4.9711 C   0  0  0  0  0  0  0  0  0  0  0  0
   -0.2875    7.4060    4.2490 C   0  0  0  0  0  0  0  0  0  0  0  0
   -0.7092    7.5689    2.7896 C   0  0  0  0  0  0  0  0  0  0  0  0
    0.1195    8.6511    2.0993 C   0  0  0  0  0  0  0  0  0  0  0  0
  2  1  2  0
  3  2  1  0
  4  1  1  0
  5  4  2  0
  6  5  1  0
  6  3  2  0
  7  2  1  0
  8  5  1  0
  9  8  1  0
 10  6  1  0
 11 10  1  0
 12 11  2  0
 13 11  1  0
 14 13  1  0
 15 14  1  0
 16 15  2  0
 17 15  1  0
 18 16  1  0
 19 17  2  0
 20 19  1  0
 20 18  2  0
 21 20  1  0
 22 21  1  0
 23 22  1  0
 24 23  1  0
 25 24  1  0
 26 25  1  0
M  END
>  <SMILES>  (23) 
CCCCCOc1ccc(CNC(=O)Nc2nc(O)ncc2OC)cc1

>  <scaffold>  (23) 
pyrimidine

$$$$

     RDKit          3D

 31 32  0  0  0  0  0  0  0  0999 V2000
    0.0000   -0.0000    0.0000 N   0  0  0  0  0  0  0  0  0  0  0  0
    0.0000   -0.0000    1.3241 C   0  0  0  0  0  0  0  0  0  0  0  0
    1.0613    0.0000    2.1032 N   0  0  0  0  0  0  0  0  0  0  0  0
    1.1453   -0.0563   -0.6620 C   0  0  0  0  0  0  0  0  0  0  0  0
    2.3677   -0.1767    0.0471 C   0  0  0  0  0  0  0  0  0  0  0  0
    2.2301   -0.0568    1.4536 C   0  0  0  0  0  0  0  0  0  0  0  0
    3.6375   -0.3987   -0.5245 C   0  0  0  0  0  0  0  0  0  0  0  0
    3.3430   -0.1027    2.2383 N   0  0  0  0  0  0  0  0  0  0  0  0
    4.7200   -0.4336    0.3279 C   0  0  0  0  0  0  0  0  0  0  0  0
    4.6180   -0.2614    1.7395 C   0  0  0  0  0  0  0  0  0  0  0  0
    5.9325   -0.2509    2.7301 S   0  0  0  0  0  0  0  0  0  0  0  0
    1.0233    0.0014   -1.9792 O   0  0  0  0  0  0  0  0  0  0  0  0
    5.9679   -0.7098   -0.2869 N   0  0  0  0  0  0  0  0  0  0  0  0
    2.0698    0.3836   -2.8569 C   0  0  0  0  0  0  0  0  0  0  0  0
    6.9651    0.2180   -0.3220 C   0  0  0  0  0  0  0  0  0  0  0  0
    6.9935    1.2218    0.3121 O   0  0  0  0  0  0  0  0  0  0  0  0
    7.8935   -0.2379   -1.1608 O   0  0  0  0  0  0  0  0  0  0  0  0
    9.0706    0.5861   -1.2928 C   0  0  1  0  0  0  0  0  0  0  0  0
   10.0597    0.3260   -0.1577 C   0  0  0  0  0  0  0  0  0  0  0  0
    9.6926    0.2569   -2.6489 C   0  0  0  0  0  0  0  0  0  0  0  0
    8.8181    0.6465   -3.8396 C   0  0  0  0  0  0  0  0  0  0  0  0
    9.4599    0.2474   -5.1675 C   0  0  0  0  0  0  0  0  0  0  0  0
    8.5988    0.5666   -6.3886 C   0  0  0  0  0  0  0  0  0  0  0  0
    9.2605    0.0994   -7.6841 C   0  0  0  0  0  0  0  0  0  0  0  0
    8.4636    0.4442   -8.9412 C   0  0  0  0  0  0  0  0  0  0  0  0
    9.1929    0.0047  -10.2098 C   0  0  0  0  0  0  0  0  0  0  0  0
    8.4116    0.2781  -11.4940 C   0  0  0  0  0  0  0  0  0  0  0  0
    9.2059   -0.1288  -12.7341 C   0  0  0  0  0  0  0  0  0  0  0  0
    8.4457    0.0740  -14.0438 C   0  0  0  0  0  0  0  0  0  0  0  0
    9.2659   -0.4007  -15.2535 C   0  0  0  0  0  0  0  0  0  0  0  0
    8.4861   -0.1266  -16.5384 C   0  0  0  0  0  0  0  0  0  0  0  0
  2  1  2  0
  3  2  1  0
  4  1  1  0
  5  4  2  0
  6  5  1  0
  6  3  2  0
  7  5  1  0
  8  6  1  0
  9  7  2  0
 10  9  1  0
 10  8  1  0
 11 10  2  0
 12  4  1  0
 13  9  1  0
 14 12  1  0
 15 13  1  0
 16 15  2  0
 17 15  1  0
 18 17  1  0
 18 19  1  1
 20 18  1  0
 21 20  1  0
 22 21  1  0
 23 22  1  0
 24 23  1  0
 25 24  1  0
 26 25  1  0
 27 26  1  0
 28 27  1  0
 29 28  1  0
 30 29  1  0
 31 30  1  0
M  END
>  <SMILES>  (24) 
CCCCCCCCCCCCC(C)OC(=O)Nc1cc2c(OC)ncnc2[nH]c1=S

>  <scaffold>  (24) 
pyrimidine

$$$$

     RDKit          3D

 26 28  0  0  0  0  0  0  0  0999 V2000
   -0.0000    0.0000   -0.0000 N   0  0  0  0  0  0  0  0  0  0  0  0
   -0.0000   -0.0000    1.3165 C   0  0  0  0  0  0  0  0  0  0  0  0
    1.0674    0.0000    2.1001 N   0  0  0  0  0  0  0  0  0  0  0  0
    1.1836   -0.0000   -0.6104 C   0  0  0  0  0  0  0  0  0  0  0  0
    2.3488    0.0000    0.1405 C   0  0  0  0  0  0  0  0  0  0  0  0
    2.2147   -0.0000    1.5281 C   0  0  0  0  0  0  0  0  0  0  0  0
    3.3129    0.0483    2.2933 O   0  0  0  0  0  0  0  0  0  0  0  0
    1.0575   -0.0522   -1.9427 O   0  0  0  0  0  0  0  0  0  0  0  0
    2.2629   -0.0020   -2.7189 C   0  0  0  0  0  0  0  0  0  0  0  0
    3.2391   -0.0806    3.6794 C   0  0  0  0  0  0  0  0  0  0  0  0
    4.0490    0.7521    4.4358 C   0  0  0  0  0  0  0  0  0  0  0  0
    2.4358   -1.0204    4.2886 C   0  0  0  0  0  0  0  0  0  0  0  0
    4.0463    0.6266    5.8083 C   0  0  0  0  0  0  0  0  0  0  0  0
    2.4329   -1.1439    5.6692 C   0  0  0  0  0  0  0  0  0  0  0  0
    3.2658   -0.3020    6.4954 C   0  0  0  0  0  0  0  0  0  0  0  0
    2.8251    1.4145   -2.8276 C   0  0  0  0  0  0  0  0  0  0  0  0
    3.3094   -0.2952    7.8494 O   0  0  0  0  0  0  0  0  0  0  0  0
    2.5849   -1.2372    8.5783 C   0  0  0  0  0  0  0  0  0  0  0  0
    2.8798   -2.5984    8.5176 C   0  0  0  0  0  0  0  0  0  0  0  0
    1.5850   -0.7704    9.4171 C   0  0  0  0  0  0  0  0  0  0  0  0
    2.1677   -3.4871    9.2939 C   0  0  0  0  0  0  0  0  0  0  0  0
    0.8756   -1.6605   10.1943 C   0  0  0  0  0  0  0  0  0  0  0  0
    1.1854   -3.0177   10.1903 C   0  0  0  0  0  0  0  0  0  0  0  0
    0.4233   -3.9417   10.8398 N   0  0  0  0  0  0  0  0  0  0  0  0
   -0.4365   -3.6331   11.9461 C   0  0  0  0  0  0  0  0  0  0  0  0
    0.2924   -3.3987   13.2682 C   0  0  0  0  0  0  0  0  0  0  0  0
  2  1  2  0
  3  2  1  0
  4  1  1  0
  5  4  2  0
  6  5  1  0
  6  3  2  0
  7  6  1  0
  8  4  1  0
  9  8  1  0
 10  7  1  0
 11 10  2  0
 12 10  1  0
 13 11  1  0
 14 12  2  0
 15 14  1  0
 15 13  2  0
 16  9  1  0
 17 15  1  0
 18 17  1  0
 19 18  2  0
 20 18  1  0
 21 19  1  0
 22 20  2  0
 23 22  1  0
 23 21  2  0
 24 23  1  0
 25 24  1  0
 26 25  1  0
M  END
>  <SMILES>  (25) 
CCNc1ccc(Oc2ccc(Oc3cc(OCC)ncn3)cc2)cc1

>  <scaffold>  (25) 
pyrimidine

$$$$

     RDKit          3D

 12 12  0  0  0  0  0  0  0  0999 V2000
    0.0000    0.0000    0.0000 N   0  0  0  0  0  0  0  0  0  0  0  0
    0.0000   -0.0000    1.3625 C   0  0  0  0  0  0  0  0  0  0  0  0
    1.0557    0.0000    2.0853 N   0  0  0  0  0  0  0  0  0  0  0  0
    1.2261    0.1208   -0.6353 C   0  0  0  0  0  0  0  0  0  0  0  0
    2.3649    0.1208    0.0985 C   0  0  0  0  0  0  0  0  0  0  0  0
    2.3741   -0.0005    1.5362 C   0  0  0  0  0  0  0  0  0  0  0  0
    3.3257   -0.0588    2.2784 O   0  0  0  0  0  0  0  0  0  0  0  0
   -1.1990   -0.0589   -0.6931 N   0  0  0  0  0  0  0  0  0  0  0  0
    1.1720    0.1651   -2.0039 N   0  0  0  0  0  0  0  0  0  0  0  0
   -1.5258   -1.1363   -1.5017 C   0  0  0  0  0  0  0  0  0  0  0  0
   -2.5749   -1.0647   -2.0966 O   0  0  0  0  0  0  0  0  0  0  0  0
   -0.6588   -2.1758   -1.5585 N   0  0  0  0  0  0  0  0  0  0  0  0
  2  1  1  0
  3  2  2  0
  4  1  1  0
  5  4  2  0
  6  5  1  0
  6  3  1  0
  7  6  2  0
  8  1  1  0
  9  4  1  0
 10  8  1  0
 11 10  2  0
 12 10  1  0
M  END
>  <SMILES>  (26) 
NC(=O)Nn1cnc(=O)cc1N

>  <scaffold>  (26) 
pyrimidine

$$$$

     RDKit          3D

 25 27  0  0  0  0  0  0  0  0999 V2000
    0.0000   -0.0000   -0.0000 N   0  0  0  0  0  0  0  0  0  0  0  0
   -0.0000    0.0000    1.2941 C   0  0  0  0  0  0  0  0  0  0  0  0
    1.1424   -0.0000    2.0223 N   0  0  0  0  0  0  0  0  0  0  0  0
    1.1786   -0.0579   -0.6813 C   0  0  0  0  0  0  0  0  0  0  0  0
    2.3722   -0.0579    0.0078 C   0  0  0  0  0  0  0  0  0  0  0  0
    2.3722   -0.0579    1.4507 C   0  0  0  0  0  0  0  0  0  0  0  0
    3.3505   -0.1048    2.1462 O   0  0  0  0  0  0  0  0  0  0  0  0
    1.1271   -0.1046   -2.0420 N   0  0  0  0  0  0  0  0  0  0  0  0
    3.5061   -0.0677   -0.7048 O   0  0  0  0  0  0  0  0  0  0  0  0
   -1.1786   -0.0579    1.9754 N   0  0  0  0  0  0  0  0  0  0  0  0
   -2.4471    0.1303    1.3141 C   0  0  0  0  0  0  0  0  0  0  0  0
   -2.8199    1.5777    1.1675 C   0  0  0  0  0  0  0  0  0  0  0  0
   -2.3758    2.5851    1.9569 C   0  0  0  0  0  0  0  0  0  0  0  0
   -3.7224    2.1169    0.2155 C   0  0  0  0  0  0  0  0  0  0  0  0
   -2.9660    3.7164    1.5500 O   0  0  0  0  0  0  0  0  0  0  0  0
   -3.7909    3.4503    0.4871 C   0  0  0  0  0  0  0  0  0  0  0  0
   -4.6011    4.5534   -0.1100 C   0  0  0  0  0  0  0  0  0  0  0  0
   -5.9308    4.5621    0.4064 O   0  0  0  0  0  0  0  0  0  0  0  0
   -6.1046    4.9107    1.7121 C   0  0  0  0  0  0  0  0  0  0  0  0
   -5.2281    5.6169    2.5211 C   0  0  0  0  0  0  0  0  0  0  0  0
   -7.3836    4.6341    2.2376 C   0  0  0  0  0  0  0  0  0  0  0  0
   -5.5403    5.9540    3.8121 C   0  0  0  0  0  0  0  0  0  0  0  0
   -7.6903    4.9820    3.5023 C   0  0  0  0  0  0  0  0  0  0  0  0
   -6.7617    5.5946    4.3604 C   0  0  0  0  0  0  0  0  0  0  0  0
   -7.0171    5.9201    5.7085 N   0  0  0  0  0  0  0  0  0  0  0  0
  2  1  2  0
  3  2  1  0
  4  1  1  0
  5  4  1  0
  6  5  1  0
  6  3  2  0
  7  6  1  0
  8  4  2  0
  9  5  2  0
 10  2  1  0
 11 10  1  0
 12 11  1  0
 13 12  2  0
 14 12  1  0
 15 13  1  0
 16 15  1  0
 16 14  2  0
 17 16  1  0
 18 17  1  0
 19 18  1  0
 20 19  2  0
 21 19  1  0
 22 20  1  0
 23 21  2  0
 24 23  1  0
 24 22  2  0
 25 24  1  0
M  END
>  <SMILES>  (27) 
N=C1N=C(NCc2coc(COc3ccc(N)cc3)c2)N=C(O)C1=O

>  <scaffold>  (27) 
pyrimidine

$$$$

     RDKit          3D

 29 32  0  0  0  0  0  0  0  0999 V2000
   -0.0000   -0.0000   -0.0000 N   0  0  0  0  0  0  0  0  0  0  0  0
   -0.0000   -0.0000    1.3241 C   0  0  0  0  0  0  0  0  0  0  0  0
    1.0215   -0.0000    2.1546 N   0  0  0  0  0  0  0  0  0  0  0  0
    1.1904   -0.0000   -0.6139 C   0  0  0  0  0  0  0  0  0  0  0  0
    2.3758   -0.0000    0.1500 C   0  0  0  0  0  0  0  0  0  0  0  0
    2.1690   -0.0562    1.5438 C   0  0  0  0  0  0  0  0  0  0  0  0
    3.7173   -0.0538   -0.0820 N   0  0  0  0  0  0  0  0  0  0  0  0
    3.4386   -0.0983    2.0366 N   0  0  0  0  0  0  0  0  0  0  0  0
    4.3660   -0.0703    1.0122 N   0  0  0  0  0  0  0  0  0  0  0  0
    1.1415    0.0489   -1.9669 N   0  0  0  0  0  0  0  0  0  0  0  0
    3.8153   -0.1075    3.4379 C   0  0  2  0  0  0  0  0  0  0  0  0
    5.2942   -0.4420    3.5315 C   0  0  0  0  0  0  0  0  0  0  0  0
    0.0022   -0.3943   -2.7333 C   0  0  0  0  0  0  0  0  0  0  0  0
    0.1503   -1.8845   -3.1149 C   0  0  0  0  0  0  0  0  0  0  0  0
    0.4594   -2.7291   -1.9013 C   0  0  0  0  0  0  0  0  0  0  0  0
   -0.4873   -2.9560   -0.9146 C   0  0  0  0  0  0  0  0  0  0  0  0
    1.7350   -3.2555   -1.7030 C   0  0  0  0  0  0  0  0  0  0  0  0
   -0.2128   -3.6162    0.2823 C   0  0  0  0  0  0  0  0  0  0  0  0
    1.9972   -3.9060   -0.5256 C   0  0  0  0  0  0  0  0  0  0  0  0
    1.0535   -4.0972    0.4295 C   0  0  0  0  0  0  0  0  0  0  0  0
    1.3814   -4.7069    1.6030 F   0  0  0  0  0  0  0  0  0  0  0  0
    3.0008   -1.0999    4.2337 C   0  0  0  0  0  0  0  0  0  0  0  0
    3.0164   -2.4246    3.7996 C   0  0  0  0  0  0  0  0  0  0  0  0
    2.1884   -0.7234    5.2918 C   0  0  0  0  0  0  0  0  0  0  0  0
    2.2491   -3.3563    4.4650 C   0  0  0  0  0  0  0  0  0  0  0  0
    1.4255   -1.6587    5.9573 C   0  0  0  0  0  0  0  0  0  0  0  0
    1.4496   -3.0547    5.5565 C   0  0  0  0  0  0  0  0  0  0  0  0
    0.6943   -3.8899    6.3236 O   0  0  0  0  0  0  0  0  0  0  0  0
    0.7672   -5.2629    6.0102 C   0  0  0  0  0  0  0  0  0  0  0  0
  2  1  2  0
  3  2  1  0
  4  1  1  0
  5  4  2  0
  6  5  1  0
  6  3  2  0
  7  5  1  0
  8  6  1  0
  9  8  1  0
  9  7  2  0
 10  4  1  0
 11  8  1  0
 11 12  1  6
 13 10  1  0
 14 13  1  0
 15 14  1  0
 16 15  2  0
 17 15  1  0
 18 16  1  0
 19 17  2  0
 20 19  1  0
 20 18  2  0
 21 20  1  0
 22 11  1  0
 23 22  2  0
 24 22  1  0
 25 23  1  0
 26 24  2  0
 27 25  2  0
 27 26  1  0
 28 27  1  0
 29 28  1  0
M  END
>  <SMILES>  (28) 
COc1ccc(C(C)n2nnc3c(NCCc4ccc(F)cc4)ncnc32)cc1

>  <scaffold>  (28) 
pyrimidine

$$$$

     RDKit          3D

 18 19  0  0  0  0  0  0  0  0999 V2000
    0.0000    0.0000    0.0000 N   0  0  0  0  0  0  0  0  0  0  0  0
   -0.0000    0.0000    1.3241 C   0  0  0  0  0  0  0  0  0  0  0  0
    1.0423   -0.0000    2.1160 N   0  0  0  0  0  0  0  0  0  0  0  0
    1.1768   -0.0000   -0.6069 C   0  0  0  0  0  0  0  0  0  0  0  0
    2.3622   -0.0000    0.1570 C   0  0  0  0  0  0  0  0  0  0  0  0
    2.2274    0.0000    1.5526 C   0  0  0  0  0  0  0  0  0  0  0  0
    3.9291   -0.0625   -0.5807 Cl  0  0  0  0  0  0  0  0  0  0  0  0
    1.3001    0.0511   -1.9091 O   0  0  0  0  0  0  0  0  0  0  0  0
    3.3007    0.0472    2.3004 O   0  0  0  0  0  0  0  0  0  0  0  0
    3.3002   -0.0011    3.6778 C   0  0  0  0  0  0  0  0  0  0  0  0
    4.4373    0.5210    4.3105 C   0  0  0  0  0  0  0  0  0  0  0  0
    2.3014   -0.6079    4.4379 C   0  0  0  0  0  0  0  0  0  0  0  0
    4.5778    0.4802    5.6889 C   0  0  0  0  0  0  0  0  0  0  0  0
    2.4377   -0.6369    5.7855 C   0  0  0  0  0  0  0  0  0  0  0  0
    3.5320   -0.1037    6.3865 C   0  0  0  0  0  0  0  0  0  0  0  0
    0.0957    0.1695   -2.6795 C   0  0  0  0  0  0  0  0  0  0  0  0
   -0.4580    1.5934   -2.6761 C   0  0  0  0  0  0  0  0  0  0  0  0
    3.5317   -0.1546    7.7481 O   0  0  0  0  0  0  0  0  0  0  0  0
  2  1  2  0
  3  2  1  0
  4  1  1  0
  5  4  2  0
  6  5  1  0
  6  3  2  0
  7  5  1  0
  8  4  1  0
  9  6  1  0
 10  9  1  0
 11 10  2  0
 12 10  1  0
 13 11  1  0
 14 12  2  0
 15 14  1  0
 15 13  2  0
 16  8  1  0
 17 16  1  0
 18 15  1  0
M  END
>  <SMILES>  (29) 
CCOc1ncnc(Oc2ccc(O)cc2)c1Cl

>  <scaffold>  (29) 
pyrimidine

$$$$

     RDKit          3D

 30 32  0  0  0  0  0  0  0  0999 V2000
    0.0000   -0.0000   -0.0000 C   0  0  0  0  0  0  0  0  0  0  0  0
    0.0000    0.0000    1.3862 C   0  0  0  0  0  0  0  0  0  0  0  0
    1.2437   -0.0000    2.0160 C   0  0  0  0  0  0  0  0  0  0  0  0
    1.1130   -0.0000   -0.7172 N   0  0  0  0  0  0  0  0  0  0  0  0
    2.2260   -0.0000    0.0000 C   0  0  0  0  0  0  0  0  0  0  0  0
    2.3534   -0.0000    1.3180 N   0  0  0  0  0  0  0  0  0  0  0  0
    1.2909    0.0472    3.3233 O   0  0  0  0  0  0  0  0  0  0  0  0
    3.2777    0.0522   -0.8277 O   0  0  0  0  0  0  0  0  0  0  0  0
    2.5253    0.1001    4.0031 C   0  0  0  0  0  0  0  0  0  0  0  0
    4.5473    0.0095   -0.3348 C   0  0  0  0  0  0  0  0  0  0  0  0
    4.9089   -0.1999    0.9057 N   0  0  0  0  0  0  0  0  0  0  0  0
    5.4850    0.2362   -1.3633 C   0  0  0  0  0  0  0  0  0  0  0  0
    6.1528   -0.2795    1.3295 N   0  0  0  0  0  0  0  0  0  0  0  0
    6.7799    0.1537   -0.9225 C   0  0  0  0  0  0  0  0  0  0  0  0
    7.1052   -0.1384    0.4426 C   0  0  0  0  0  0  0  0  0  0  0  0
    8.6892   -0.3353    1.1425 S   0  0  0  0  0  0  0  0  0  0  0  0
    8.5318   -0.7480    2.9022 C   0  0  0  0  0  0  0  0  0  0  0  0
    8.0893   -2.2058    3.0177 C   0  0  0  0  0  0  0  0  0  0  0  0
    8.0017   -2.5881    4.3722 O   0  0  0  0  0  0  0  0  0  0  0  0
    6.9196   -2.2027    5.0905 C   0  0  0  0  0  0  0  0  0  0  0  0
    5.8218   -1.5018    4.6160 C   0  0  0  0  0  0  0  0  0  0  0  0
    6.9754   -2.6022    6.4502 C   0  0  0  0  0  0  0  0  0  0  0  0
    4.7534   -1.2125    5.4372 C   0  0  0  0  0  0  0  0  0  0  0  0
    5.9059   -2.3140    7.2704 C   0  0  0  0  0  0  0  0  0  0  0  0
    4.7292   -1.6095    6.7733 C   0  0  0  0  0  0  0  0  0  0  0  0
    3.7066   -1.3008    7.6442 N   0  0  0  0  0  0  0  0  0  0  0  0
    2.6190   -0.4354    7.3236 C   0  0  0  0  0  0  0  0  0  0  0  0
    3.0680    1.0249    7.3334 C   0  0  0  0  0  0  0  0  0  0  0  0
    1.8780    1.7598    7.1538 O   0  0  0  0  0  0  0  0  0  0  0  0
    2.1574    3.1413    7.1995 C   0  0  0  0  0  0  0  0  0  0  0  0
  2  1  2  0
  3  2  1  0
  4  1  1  0
  5  4  2  0
  6  5  1  0
  6  3  2  0
  7  3  1  0
  8  5  1  0
  9  7  1  0
 10  8  1  0
 11 10  2  0
 12 10  1  0
 13 11  1  0
 14 12  2  0
 15 14  1  0
 15 13  2  0
 16 15  1  0
 17 16  1  0
 18 17  1  0
 19 18  1  0
 20 19  1  0
 21 20  2  0
 22 20  1  0
 23 21  1  0
 24 22  2  0
 25 23  2  0
 25 24  1  0
 26 25  1  0
 27 26  1  0
 28 27  1  0
 29 28  1  0
 30 29  1  0
M  END
>  <SMILES>  (30) 
COCCNc1ccc(OCCSc2ccc(Oc3nccc(OC)n3)nn2)cc1

>  <scaffold>  (30) 
pyrimidine

$$$$

     RDKit          3D

 28 30  0  0  0  0  0  0  0  0999 V2000
    0.0000    0.0000   -0.0000 C   0  0  0  0  0  0  0  0  0  0  0  0
   -0.0000    0.0000    1.3625 C   0  0  0  0  0  0  0  0  0  0  0  0
    1.2651    0.0000    2.0564 C   0  0  0  0  0  0  0  0  0  0  0  0
    1.0928   -0.0537   -0.7858 N   0  0  0  0  0  0  0  0  0  0  0  0
    2.2135   -0.0537   -0.1387 C   0  0  0  0  0  0  0  0  0  0  0  0
    2.4122   -0.0076    1.1928 N   0  0  0  0  0  0  0  0  0  0  0  0
    1.4442    0.0480    3.2573 O   0  0  0  0  0  0  0  0  0  0  0  0
   -1.2991    0.0638    2.1135 C   0  0  0  0  0  0  0  0  0  0  0  0
    3.3090   -0.0578   -0.8690 O   0  0  0  0  0  0  0  0  0  0  0  0
   -2.3145    0.7423    1.4084 O   0  0  0  0  0  0  0  0  0  0  0  0
   -2.1547    2.1066    1.2224 C   0  0  0  0  0  0  0  0  0  0  0  0
   -3.1582    2.7245    0.4776 C   0  0  0  0  0  0  0  0  0  0  0  0
   -1.0747    2.8639    1.6737 C   0  0  0  0  0  0  0  0  0  0  0  0
   -3.0831    4.0605    0.1818 C   0  0  0  0  0  0  0  0  0  0  0  0
   -1.0044    4.1932    1.3828 C   0  0  0  0  0  0  0  0  0  0  0  0
   -2.0183    4.8557    0.6030 C   0  0  0  0  0  0  0  0  0  0  0  0
   -1.8752    6.1899    0.2884 N   0  0  0  0  0  0  0  0  0  0  0  0
   -2.9850    6.9753   -0.1694 C   0  0  0  0  0  0  0  0  0  0  0  0
   -4.0756    7.1387    0.8501 C   0  0  0  0  0  0  0  0  0  0  0  0
   -4.0455    6.9289    2.1961 C   0  0  0  0  0  0  0  0  0  0  0  0
   -5.2956    7.5842    0.4647 O   0  0  0  0  0  0  0  0  0  0  0  0
   -5.3494    7.3026    2.6102 C   0  0  0  0  0  0  0  0  0  0  0  0
   -6.0709    7.6931    1.5608 C   0  0  0  0  0  0  0  0  0  0  0  0
   -7.8546    8.2156    1.3852 Br  0  0  0  0  0  0  0  0  0  0  0  0
   -5.9329    7.3555    3.9837 C   0  0  0  0  0  0  0  0  0  0  0  0
   -5.1762    6.6949    4.9620 O   0  0  0  0  0  0  0  0  0  0  0  0
   -5.3529    5.2960    4.9407 C   0  0  0  0  0  0  0  0  0  0  0  0
   -4.4674    4.6209    5.9869 C   0  0  0  0  0  0  0  0  0  0  0  0
  2  1  2  0
  3  2  1  0
  4  1  1  0
  5  4  2  0
  6  5  1  0
  6  3  1  0
  7  3  2  0
  8  2  1  0
  9  5  1  0
 10  8  1  0
 11 10  1  0
 12 11  2  0
 13 11  1  0
 14 12  1  0
 15 13  2  0
 16 15  1  0
 16 14  2  0
 17 16  1  0
 18 17  1  0
 19 18  1  0
 20 19  2  0
 21 19  1  0
 22 20  1  0
 23 22  2  0
 23 21  1  0
 24 23  1  0
 25 22  1  0
 26 25  1  0
 27 26  1  0
 28 27  1  0
M  END
>  <SMILES>  (31) 
CCOCc1cc(CNc2ccc(OCc3cnc(O)[nH]c3=O)cc2)oc1Br

>  <scaffold>  (31) 
pyrimidine

$$$$

     RDKit          3D

 29 31  0  0  0  0  0  0  0  0999 V2000
    0.0000   -0.0000    0.0000 C   0  0  0  0  0  0  0  0  0  0  0  0
    0.0000   -0.0000    1.4183 C   0  0  0  0  0  0  0  0  0  0  0  0
    1.2857   -0.0000    2.0171 C   0  0  0  0  0  0  0  0  0  0  0  0
    1.1323    0.0556   -0.6545 N   0  0  0  0  0  0  0  0  0  0  0  0
    2.3055    0.0556    0.0229 C   0  0  0  0  0  0  0  0  0  0  0  0
    2.3693    0.0020    1.3217 N   0  0  0  0  0  0  0  0  0  0  0  0
   -1.1440   -0.0562    2.2409 C   0  0  0  0  0  0  0  0  0  0  0  0
   -1.0132   -0.1030    3.5963 C   0  0  0  0  0  0  0  0  0  0  0  0
    0.2434   -0.0979    4.2363 C   0  0  0  0  0  0  0  0  0  0  0  0
    1.3885   -0.0449    3.4998 C   0  0  0  0  0  0  0  0  0  0  0  0
   -1.5076   -0.0741   -0.8715 Cl  0  0  0  0  0  0  0  0  0  0  0  0
    0.3463   -0.2186    5.9225 Cl  0  0  0  0  0  0  0  0  0  0  0  0
    3.3998    0.1682   -0.7546 N   0  0  0  0  0  0  0  0  0  0  0  0
    4.7443    0.0292   -0.2740 C   0  0  0  0  0  0  0  0  0  0  0  0
    5.5479   -0.9241   -1.1419 C   0  0  0  0  0  0  0  0  0  0  0  0
    5.0303   -1.3368   -2.2973 N   0  0  0  0  0  0  0  0  0  0  0  0
    6.8370   -1.3287   -0.7671 C   0  0  0  0  0  0  0  0  0  0  0  0
    5.7068   -2.1208   -3.0980 C   0  0  0  0  0  0  0  0  0  0  0  0
    7.5469   -2.1558   -1.6105 C   0  0  0  0  0  0  0  0  0  0  0  0
    6.9777   -2.5527   -2.7851 C   0  0  0  0  0  0  0  0  0  0  0  0
    7.8789   -3.5737   -3.9522 S   0  0  0  0  0  6  0  0  0  0  0  0
    7.0230   -3.9981   -5.0333 O   0  0  0  0  0  0  0  0  0  0  0  0
    8.6224   -4.5867   -3.2944 O   0  0  0  0  0  0  0  0  0  0  0  0
    9.0021   -2.4905   -4.5597 N   0  0  0  0  0  0  0  0  0  0  0  0
    8.4096   -1.5452   -5.4747 C   0  0  0  0  0  0  0  0  0  0  0  0
   10.3106   -2.9749   -4.9270 C   0  0  0  0  0  0  0  0  0  0  0  0
   10.3188   -3.8733   -6.1628 C   0  0  0  0  0  0  0  0  0  0  0  0
   11.7172   -4.4026   -6.4766 C   0  0  0  0  0  0  0  0  0  0  0  0
   11.7702   -5.3513   -7.6731 C   0  0  0  0  0  0  0  0  0  0  0  0
  2  1  2  0
  3  2  1  0
  4  1  1  0
  5  4  2  0
  6  5  1  0
  6  3  2  0
  7  2  1  0
  8  7  2  0
  9  8  1  0
 10  9  2  0
 10  3  1  0
 11  1  1  0
 12  9  1  0
 13  5  1  0
 14 13  1  0
 15 14  1  0
 16 15  2  0
 17 15  1  0
 18 16  1  0
 19 17  2  0
 20 19  1  0
 20 18  2  0
 21 20  1  0
 22 21  2  0
 23 21  2  0
 24 21  1  0
 25 24  1  0
 26 24  1  0
 27 26  1  0
 28 27  1  0
 29 28  1  0
M  END
>  <SMILES>  (32) 
CCCCN(C)S(=O)(=O)c1ccc(CNc2nc(Cl)c3ccc(Cl)cc3n2)nc1

>  <scaffold>  (32) 
pyrimidine

$$$$

     RDKit          3D

 14 14  0  0  0  0  0  0  0  0999 V2000
   -0.0000    0.0000    0.0000 C   0  0  0  0  0  0  0  0  0  0  0  0
   -0.0000    0.0000    1.4102 C   0  0  0  0  0  0  0  0  0  0  0  0
    1.2192    0.0000    2.0530 C   0  0  0  0  0  0  0  0  0  0  0  0
    1.1904   -0.0000   -0.6139 N   0  0  0  0  0  0  0  0  0  0  0  0
    2.2907   -0.0000    0.0952 C   0  0  0  0  0  0  0  0  0  0  0  0
    2.3507    0.0584    1.4015 N   0  0  0  0  0  0  0  0  0  0  0  0
   -1.1258    0.0000   -0.7255 N   0  0  0  0  0  0  0  0  0  0  0  0
   -1.5250   -0.0000    2.3929 S   0  0  0  0  0  6  0  0  0  0  0  0
   -2.6856   -0.3521    1.6113 O   0  0  0  0  0  0  0  0  0  0  0  0
   -1.2564   -0.7201    3.5945 O   0  0  0  0  0  0  0  0  0  0  0  0
   -1.7588    1.5764    2.8043 N   0  0  0  0  0  0  0  0  0  0  0  0
   -1.1779   -0.0520   -2.1664 C   0  0  0  0  0  0  0  0  0  0  0  0
   -2.1545    2.4638    1.7489 C   0  0  0  0  0  0  0  0  0  0  0  0
   -0.9755    2.0744    3.9090 C   0  0  0  0  0  0  0  0  0  0  0  0
  2  1  2  0
  3  2  1  0
  4  1  1  0
  5  4  2  0
  6  5  1  0
  6  3  2  0
  7  1  1  0
  8  2  1  0
  9  8  2  0
 10  8  2  0
 11  8  1  0
 12  7  1  0
 13 11  1  0
 14 11  1  0
M  END
>  <SMILES>  (33) 
CNc1ncncc1S(=O)(=O)N(C)C

>  <scaffold>  (33) 
pyrimidine

$$$$

     RDKit          3D

 34 37  0  0  0  0  0  0  0  0999 V2000
    0.0000   -0.0000    0.0000 N   0  0  0  0  0  0  0  0  0  0  0  0
    0.0000   -0.0000    1.4021 C   0  0  0  0  0  0  0  0  0  0  0  0
    1.1609   -0.0000    2.0389 N   0  0  0  0  0  0  0  0  0  0  0  0
    1.1719    0.0576   -0.6774 C   0  0  0  0  0  0  0  0  0  0  0  0
    2.3654    0.0576    0.0117 C   0  0  0  0  0  0  0  0  0  0  0  0
    2.2973   -0.0053    1.4516 C   0  0  0  0  0  0  0  0  0  0  0  0
   -1.4075    0.0000    2.3091 S   0  0  0  0  0  0  0  0  0  0  0  0
    3.5455    0.1615   -0.6132 F   0  0  0  0  0  0  0  0  0  0  0  0
    3.4500    0.0414    2.1766 N   0  0  0  0  0  0  0  0  0  0  0  0
    1.0285    0.1088   -2.1629 C   0  0  0  0  0  0  0  0  0  0  0  0
    3.6575    0.0545    3.5471 C   0  0  0  0  0  0  0  0  0  0  0  0
    2.6595    0.3464    4.4637 C   0  0  0  0  0  0  0  0  0  0  0  0
    4.9619   -0.1497    3.9693 C   0  0  0  0  0  0  0  0  0  0  0  0
    3.0080    0.3803    5.8214 C   0  0  0  0  0  0  0  0  0  0  0  0
    5.3025   -0.1056    5.3041 C   0  0  0  0  0  0  0  0  0  0  0  0
    4.2941    0.1406    6.3260 C   0  0  0  0  0  0  0  0  0  0  0  0
    1.9736    0.6259    6.6985 N   0  0  0  0  0  0  0  0  0  0  0  0
    0.8580    1.5235    6.4630 C   0  0  0  0  0  0  0  0  0  0  0  0
    1.2989    2.9421    6.6840 C   0  0  0  0  0  0  0  0  0  0  0  0
    2.4634    3.5694    6.3571 C   0  0  0  0  0  0  0  0  0  0  0  0
    0.4020    3.7744    7.2834 O   0  0  0  0  0  0  0  0  0  0  0  0
    2.2659    4.8872    6.7669 C   0  0  0  0  0  0  0  0  0  0  0  0
    1.0068    4.9776    7.3175 C   0  0  0  0  0  0  0  0  0  0  0  0
    0.2631    6.0774    7.9822 C   0  0  0  0  0  0  0  0  0  0  0  0
    0.2813    5.8849    9.4802 C   0  0  0  0  0  0  0  0  0  0  0  0
   -0.7783    5.3082   10.1467 C   0  0  0  0  0  0  0  0  0  0  0  0
    1.4233    6.2309   10.1856 C   0  0  0  0  0  0  0  0  0  0  0  0
   -0.6954    5.1074   11.5157 C   0  0  0  0  0  0  0  0  0  0  0  0
    1.5040    6.0271   11.5463 C   0  0  0  0  0  0  0  0  0  0  0  0
    0.4511    5.4245   12.1960 C   0  0  0  0  0  0  0  0  0  0  0  0
    0.6695    5.2256   13.5182 O   0  0  0  0  0  0  0  0  0  0  0  0
   -0.3732    4.6429   14.2525 C   0  0  0  0  0  0  0  0  0  0  0  0
   -1.5891    5.5360   14.5878 C   0  0  0  0  0  0  0  0  0  0  0  0
   -2.7474    4.8088   14.8582 O   0  0  0  0  0  0  0  0  0  0  0  0
  2  1  1  0
  3  2  1  0
  4  1  1  0
  5  4  2  0
  6  5  1  0
  6  3  2  0
  7  2  2  0
  8  5  1  0
  9  6  1  0
 10  4  1  0
 11  9  1  0
 12 11  2  0
 13 11  1  0
 14 12  1  0
 15 13  2  0
 16 15  1  0
 16 14  2  0
 17 14  1  0
 18 17  1  0
 19 18  1  0
 20 19  2  0
 21 19  1  0
 22 20  1  0
 23 22  2  0
 23 21  1  0
 24 23  1  0
 25 24  1  0
 26 25  2  0
 27 25  1  0
 28 26  1  0
 29 27  2  0
 30 28  2  0
 30 29  1  0
 31 30  1  0
 32 31  1  0
 33 32  1  0
 34 33  1  0
M  END
>  <SMILES>  (34) 
Cc1[nH]c(=S)nc(Nc2cccc(NCc3ccc(Cc4ccc(OCCO)cc4)o3)c2)c1F

>  <scaffold>  (34) 
pyrimidine

$$$$

     RDKit          3D

 29 31  0  0  0  0  0  0  0  0999 V2000
    0.0000   -0.0000    0.0000 N   0  0  0  0  0  0  0  0  0  0  0  0
   -0.0000   -0.0000    1.3393 C   0  0  0  0  0  0  0  0  0  0  0  0
    1.0801   -0.0000    2.1052 N   0  0  0  0  0  0  0  0  0  0  0  0
    1.1701    0.0000   -0.6034 C   0  0  0  0  0  0  0  0  0  0  0  0
    2.3829   -0.0596    0.0976 C   0  0  0  0  0  0  0  0  0  0  0  0
    2.2459   -0.1198    1.5080 C   0  0  0  0  0  0  0  0  0  0  0  0
    3.6102   -0.1078   -0.5953 C   0  0  0  0  0  0  0  0  0  0  0  0
    4.6061   -0.1959   -1.1717 N   0  0  0  0  0  0  0  0  0  0  0  0
   -1.2231   -0.0601    1.9006 N   0  0  0  0  0  0  0  0  0  0  0  0
    3.7130   -0.1326    2.4302 S   0  0  0  0  0  0  0  0  0  0  0  0
    2.9195   -0.2842    4.0546 C   0  0  0  0  0  0  0  0  0  0  0  0
    2.2374   -1.5998    4.2984 C   0  0  0  0  0  0  0  0  0  0  0  0
    1.2259   -1.6878    5.2537 C   0  0  0  0  0  0  0  0  0  0  0  0
    2.5456   -2.7373    3.5687 C   0  0  0  0  0  0  0  0  0  0  0  0
    0.5982   -2.7872    5.5866 N   0  0  0  0  0  0  0  0  0  0  0  0
    1.8895   -3.8970    3.9212 C   0  0  0  0  0  0  0  0  0  0  0  0
    0.9470   -3.8985    4.9730 C   0  0  0  0  0  0  0  0  0  0  0  0
    0.0399   -5.3090    5.4100 Cl  0  0  0  0  0  0  0  0  0  0  0  0
    2.2219   -5.1466    3.2090 C   0  0  0  0  0  0  0  0  0  0  0  0
    2.0288   -5.3174    1.8308 C   0  0  0  0  0  0  0  0  0  0  0  0
    2.6263   -6.2537    3.9536 C   0  0  0  0  0  0  0  0  0  0  0  0
    2.4022   -6.4924    1.1972 C   0  0  0  0  0  0  0  0  0  0  0  0
    2.9981   -7.4395    3.3219 C   0  0  0  0  0  0  0  0  0  0  0  0
    2.9824   -7.5494    1.8970 C   0  0  0  0  0  0  0  0  0  0  0  0
    3.3501   -8.6186    1.1647 O   0  0  0  0  0  0  0  0  0  0  0  0
    3.9909   -9.6979    1.8249 C   0  0  0  0  0  0  0  0  0  0  0  0
    4.3398  -10.7209    0.7574 C   0  0  0  0  0  0  0  0  0  0  0  0
    5.0837  -11.8837    1.4121 C   0  0  0  0  0  0  0  0  0  0  0  0
    5.5061  -12.9172    0.3691 C   0  0  0  0  0  0  0  0  0  0  0  0
  2  1  2  0
  3  2  1  0
  4  1  1  0
  5  4  2  0
  6  5  1  0
  6  3  2  0
  7  5  1  0
  8  7  3  0
  9  2  1  0
 10  6  1  0
 11 10  1  0
 12 11  1  0
 13 12  2  0
 14 12  1  0
 15 13  1  0
 16 14  2  0
 17 16  1  0
 17 15  2  0
 18 17  1  0
 19 16  1  0
 20 19  2  0
 21 19  1  0
 22 20  1  0
 23 21  2  0
 24 23  1  0
 24 22  2  0
 25 24  1  0
 26 25  1  0
 27 26  1  0
 28 27  1  0
 29 28  1  0
M  END
>  <SMILES>  (35) 
CCCCOc1ccc(-c2cc(CSc3nc(N)ncc3C#N)cnc2Cl)cc1

>  <scaffold>  (35) 
pyrimidine

$$$$

     RDKit          3D

 25 27  0  0  0  0  0  0  0  0999 V2000
    0.0000    0.0000   -0.0000 N   0  0  0  0  0  0  0  0  0  0  0  0
   -0.0000   -0.0000    1.3393 C   0  0  0  0  0  0  0  0  0  0  0  0
    1.0305    0.0000    2.1222 N   0  0  0  0  0  0  0  0  0  0  0  0
    1.1701    0.0000   -0.6034 C   0  0  0  0  0  0  0  0  0  0  0  0
    2.3969    0.0603    0.1057 C   0  0  0  0  0  0  0  0  0  0  0  0
    2.2598    0.1204    1.5161 C   0  0  0  0  0  0  0  0  0  0  0  0
    3.6780    0.1139   -0.5004 C   0  0  0  0  0  0  0  0  0  0  0  0
    3.3417    0.2320    2.2846 N   0  0  0  0  0  0  0  0  0  0  0  0
    4.7839    0.2225    0.2881 C   0  0  0  0  0  0  0  0  0  0  0  0
    4.5619    0.2910    1.7939 C   0  0  0  0  0  0  0  0  0  0  0  0
    1.1218   -0.0483   -1.9410 O   0  0  0  0  0  0  0  0  0  0  0  0
   -0.1487   -0.0376   -2.5893 C   0  0  0  0  0  0  0  0  0  0  0  0
    5.6052    0.4494    2.5936 N   0  0  0  0  0  0  0  0  0  0  0  0
    5.3985    0.4967    4.0207 C   0  0  0  0  0  0  0  0  0  0  0  0
   -0.7636    1.3608   -2.6176 C   0  0  0  0  0  0  0  0  0  0  0  0
    0.1172    2.3742   -3.3467 C   0  0  0  0  0  0  0  0  0  0  0  0
   -0.5079    3.7484   -3.3000 C   0  0  0  0  0  0  0  0  0  0  0  0
   -0.0564    4.7487   -2.4533 C   0  0  0  0  0  0  0  0  0  0  0  0
   -1.6059    4.0458   -4.0921 C   0  0  0  0  0  0  0  0  0  0  0  0
   -0.6901    5.9719   -2.4107 C   0  0  0  0  0  0  0  0  0  0  0  0
   -2.2468    5.2830   -4.0465 C   0  0  0  0  0  0  0  0  0  0  0  0
   -1.7994    6.2593   -3.2047 C   0  0  0  0  0  0  0  0  0  0  0  0
   -2.3070    7.5204   -3.1124 O   0  0  0  0  0  0  0  0  0  0  0  0
   -3.3976    7.8732   -3.9337 C   0  0  0  0  0  0  0  0  0  0  0  0
   -4.6862    7.1927   -3.5703 C   0  0  0  0  0  0  0  0  0  0  0  0
  2  1  2  0
  3  2  1  0
  4  1  1  0
  5  4  2  0
  6  5  1  0
  6  3  2  0
  7  5  1  0
  8  6  1  0
  9  7  2  0
 10  9  1  0
 10  8  2  0
 11  4  1  0
 12 11  1  0
 13 10  1  0
 14 13  1  0
 15 12  1  0
 16 15  1  0
 17 16  1  0
 18 17  2  0
 19 17  1  0
 20 18  1  0
 21 19  2  0
 22 21  1  0
 22 20  2  0
 23 22  1  0
 24 23  1  0
 25 24  1  0
M  END
>  <SMILES>  (36) 
CCOc1ccc(CCCOc2ncnc3nc(NC)ccc23)cc1

>  <scaffold>  (36) 
pyrimidine

$$$$

     RDKit          3D

 27 28  0  0  0  0  0  0  0  0999 V2000
    0.0000    0.0000    0.0000 N   0  0  0  0  0  0  0  0  0  0  0  0
    0.0000   -0.0000    1.2941 C   0  0  0  0  0  0  0  0  0  0  0  0
    1.1424    0.0000    2.0223 N   0  0  0  0  0  0  0  0  0  0  0  0
    1.1453    0.0000   -0.7380 C   0  0  0  0  0  0  0  0  0  0  0  0
    2.3703   -0.0000   -0.1064 C   0  0  0  0  0  0  0  0  0  0  0  0
    2.4399    0.0613    1.3335 C   0  0  0  0  0  0  0  0  0  0  0  0
    3.4629    0.1143    1.9870 O   0  0  0  0  0  0  0  0  0  0  0  0
    3.5654   -0.0525   -0.7256 O   0  0  0  0  0  0  0  0  0  0  0  0
   -1.3121   -0.0000    1.9707 C   0  0  0  0  0  0  0  0  0  0  0  0
   -1.5748   -0.7740    3.1100 C   0  0  0  0  0  0  0  0  0  0  0  0
   -2.3168    0.8246    1.4449 C   0  0  0  0  0  0  0  0  0  0  0  0
   -2.8618   -0.7293    3.6228 C   0  0  0  0  0  0  0  0  0  0  0  0
   -3.5635    0.9510    2.0189 C   0  0  0  0  0  0  0  0  0  0  0  0
   -3.8584    0.0867    3.0895 C   0  0  0  0  0  0  0  0  0  0  0  0
    0.9479    0.0529   -2.0617 O   0  0  0  0  0  0  0  0  0  0  0  0
    3.8188   -0.1174   -2.1195 C   0  0  0  0  0  0  0  0  0  0  0  0
   -5.0820    0.1331    3.6510 F   0  0  0  0  0  0  0  0  0  0  0  0
    3.5142   -1.4845   -2.7299 C   0  0  0  0  0  0  0  0  0  0  0  0
    4.3406   -2.6004   -2.0718 C   0  0  1  0  0  0  0  0  0  0  0  0
    3.8995   -3.9077   -2.7282 C   0  0  0  0  0  0  0  0  0  0  0  0
    5.8458   -2.3766   -2.2087 C   0  0  0  0  0  0  0  0  0  0  0  0
    6.6197   -3.5382   -1.5874 C   0  0  0  0  0  0  0  0  0  0  0  0
    8.1329   -3.3363   -1.6498 C   0  0  0  0  0  0  0  0  0  0  0  0
    8.8597   -4.5470   -1.0665 C   0  0  0  0  0  0  0  0  0  0  0  0
   10.3558   -4.3206   -1.2013 C   0  0  2  0  0  0  0  0  0  0  0  0
   10.7767   -4.2634   -2.5042 F   0  0  0  0  0  0  0  0  0  0  0  0
   11.1333   -5.4365   -0.5051 C   0  0  0  0  0  0  0  0  0  0  0  0
  2  1  2  0
  3  2  1  0
  4  1  1  0
  5  4  2  0
  6  5  1  0
  6  3  1  0
  7  6  2  0
  8  5  1  0
  9  2  1  0
 10  9  2  0
 11  9  1  0
 12 10  1  0
 13 11  2  0
 14 13  1  0
 14 12  2  0
 15  4  1  0
 16  8  1  0
 17 14  1  0
 18 16  1  0
 19 18  1  0
 19 20  1  6
 21 19  1  0
 22 21  1  0
 23 22  1  0
 24 23  1  0
 25 24  1  0
 26 25  1  0
 25 27  1  1
M  END
>  <SMILES>  (37) 
CC(F)CCCCC(C)CCOc1c(O)nc(-c2ccc(F)cc2)[nH]c1=O

>  <scaffold>  (37) 
pyrimidine

$$$$

     RDKit          3D

 22 24  0  0  0  0  0  0  0  0999 V2000
   -0.0000    0.0000    0.0000 C   0  0  0  0  0  0  0  0  0  0  0  0
   -0.0000   -0.0000    1.3704 C   0  0  0  0  0  0  0  0  0  0  0  0
    1.2204    0.0000    2.0929 C   0  0  0  0  0  0  0  0  0  0  0  0
    1.1269    0.1110   -0.7296 N   0  0  0  0  0  0  0  0  0  0  0  0
    2.2591    0.0554   -0.0751 C   0  0  0  0  0  0  0  0  0  0  0  0
    2.3342   -0.0494    1.2971 N   0  0  0  0  0  0  0  0  0  0  0  0
    3.4871    0.1174   -0.8143 C   0  0  0  0  0  0  0  0  0  0  0  0
    3.5258   -0.2305    1.9157 C   0  0  0  0  0  0  0  0  0  0  0  0
    4.6751    0.0154   -0.1877 C   0  0  0  0  0  0  0  0  0  0  0  0
    4.6930   -0.3167    1.2180 C   0  0  0  0  0  0  0  0  0  0  0  0
    1.3996    0.0480    3.2938 O   0  0  0  0  0  0  0  0  0  0  0  0
   -1.2492   -0.1230   -0.8089 C   0  0  0  0  0  0  0  0  0  0  0  0
    5.8482   -0.5452    1.8720 F   0  0  0  0  0  0  0  0  0  0  0  0
   -1.4663   -1.5864   -1.1908 C   0  0  0  0  0  0  0  0  0  0  0  0
   -0.9540   -2.5624   -0.7309 O   0  0  0  0  0  0  0  0  0  0  0  0
   -2.3758   -1.5938   -2.1635 O   0  0  0  0  0  0  0  0  0  0  0  0
   -2.7137   -2.8130   -2.7301 C   0  0  0  0  0  0  0  0  0  0  0  0
   -1.8759   -3.8755   -3.0309 C   0  0  0  0  0  0  0  0  0  0  0  0
   -4.0630   -2.9642   -3.0092 C   0  0  0  0  0  0  0  0  0  0  0  0
   -2.2534   -5.0598   -3.6445 C   0  0  0  0  0  0  0  0  0  0  0  0
   -4.4368   -4.1349   -3.6154 C   0  0  0  0  0  0  0  0  0  0  0  0
   -3.5887   -5.1039   -4.0138 C   0  0  0  0  0  0  0  0  0  0  0  0
  2  1  2  0
  3  2  1  0
  4  1  1  0
  5  4  2  0
  6  5  1  0
  6  3  1  0
  7  5  1  0
  8  6  1  0
  9  7  2  0
 10  9  1  0
 10  8  2  0
 11  3  2  0
 12  1  1  0
 13 10  1  0
 14 12  1  0
 15 14  2  0
 16 14  1  0
 17 16  1  0
 18 17  2  0
 19 17  1  0
 20 18  1  0
 21 19  2  0
 22 21  1  0
 22 20  2  0
M  END
>  <SMILES>  (38) 
O=C(Cc1cc(=O)n2cc(F)ccc2n1)Oc1ccccc1

>  <scaffold>  (38) 
pyrimidine

$$$$

     RDKit          3D

 29 31  0  0  0  0  0  0  0  0999 V2000
   -0.0000   -0.0000   -0.0000 N   0  0  0  0  0  0  0  0  0  0  0  0
    0.0000   -0.0000    1.3165 C   0  0  0  0  0  0  0  0  0  0  0  0
    1.0483   -0.0000    2.1130 N   0  0  0  0  0  0  0  0  0  0  0  0
    1.1519   -0.0566   -0.6658 C   0  0  0  0  0  0  0  0  0  0  0  0
    2.3565   -0.2962    0.0433 C   0  0  0  0  0  0  0  0  0  0  0  0
    2.2198   -0.1762    1.4417 C   0  0  0  0  0  0  0  0  0  0  0  0
    3.5924   -0.6145   -0.5376 C   0  0  0  0  0  0  0  0  0  0  0  0
    3.3160   -0.3313    2.2225 N   0  0  0  0  0  0  0  0  0  0  0  0
    4.6281   -0.8626    0.3123 C   0  0  0  0  0  0  0  0  0  0  0  0
    4.5911   -0.6649    1.7934 C   0  0  0  0  0  0  0  0  0  0  0  0
    5.5586   -0.7519    2.5235 O   0  0  0  0  0  0  0  0  0  0  0  0
    1.1059    0.0719   -1.9982 N   0  0  0  0  0  0  0  0  0  0  0  0
    6.1313   -1.4252   -0.4883 S   0  0  0  0  0  6  0  0  0  0  0  0
    6.0005   -1.5812   -1.9167 O   0  0  0  0  0  0  0  0  0  0  0  0
    6.5072   -2.6114    0.2583 O   0  0  0  0  0  0  0  0  0  0  0  0
    7.3291   -0.1380   -0.1346 C   0  0  0  0  0  0  0  0  0  0  0  0
    7.1172    1.1689   -0.5451 C   0  0  0  0  0  0  0  0  0  0  0  0
    8.5073   -0.4833    0.5089 C   0  0  0  0  0  0  0  0  0  0  0  0
    8.0422    2.1333   -0.2077 C   0  0  0  0  0  0  0  0  0  0  0  0
    9.4402    0.4845    0.8472 C   0  0  0  0  0  0  0  0  0  0  0  0
    9.2057    1.8000    0.4841 C   0  0  0  0  0  0  0  0  0  0  0  0
   10.1723    2.9144    0.8817 C   0  0  0  0  0  0  0  0  0  0  0  0
   11.4319    2.4056    1.5808 C   0  0  0  0  0  0  0  0  0  0  0  0
   10.5327    3.7363   -0.3548 C   0  0  0  0  0  0  0  0  0  0  0  0
    9.4384    3.8795    1.8115 C   0  0  0  0  0  0  0  0  0  0  0  0
    9.4770    5.0828    1.6464 O   0  0  0  0  0  0  0  0  0  0  0  0
    8.7950    3.2711    2.7755 O   0  0  0  0  0  0  0  0  0  0  0  0
    8.0238    4.0603    3.6794 C   0  0  0  0  0  0  0  0  0  0  0  0
    8.8403    4.6166    4.8334 C   0  0  0  0  0  0  0  0  0  0  0  0
  2  1  2  0
  3  2  1  0
  4  1  1  0
  5  4  2  0
  6  5  1  0
  6  3  2  0
  7  5  1  0
  8  6  1  0
  9  7  2  0
 10  9  1  0
 10  8  1  0
 11 10  2  0
 12  4  1  0
 13  9  1  0
 14 13  2  0
 15 13  2  0
 16 13  1  0
 17 16  2  0
 18 16  1  0
 19 17  1  0
 20 18  2  0
 21 20  1  0
 21 19  2  0
 22 21  1  0
 23 22  1  0
 24 22  1  0
 25 22  1  0
 26 25  2  0
 27 25  1  0
 28 27  1  0
 29 28  1  0
M  END
>  <SMILES>  (39) 
CCOC(=O)C(C)(C)c1ccc(S(=O)(=O)c2cc3c(N)ncnc3[nH]c2=O)cc1

>  <scaffold>  (39) 
pyrimidine

$$$$

     RDKit          3D

 28 29  0  0  0  0  0  0  0  0999 V2000
    0.0000    0.0000   -0.0000 C   0  0  0  0  0  0  0  0  0  0  0  0
    0.0000   -0.0000    1.4021 C   0  0  0  0  0  0  0  0  0  0  0  0
    1.2509    0.0000    2.0356 C   0  0  0  0  0  0  0  0  0  0  0  0
    1.1474   -0.1702   -0.6697 N   0  0  0  0  0  0  0  0  0  0  0  0
    2.2654   -0.2251    0.0517 C   0  0  0  0  0  0  0  0  0  0  0  0
    2.4079   -0.0735    1.3670 N   0  0  0  0  0  0  0  0  0  0  0  0
   -1.1398    0.1123   -0.7380 N   0  0  0  0  0  0  0  0  0  0  0  0
    3.4013   -0.4477   -0.6672 N   0  0  0  0  0  0  0  0  0  0  0  0
   -2.2910    0.8023   -0.3915 C   0  0  0  0  0  0  0  0  0  0  0  0
   -2.2909    1.9331    0.4238 C   0  0  0  0  0  0  0  0  0  0  0  0
   -3.4872    0.3776   -0.9681 C   0  0  0  0  0  0  0  0  0  0  0  0
   -3.4665    2.5574    0.7814 C   0  0  0  0  0  0  0  0  0  0  0  0
   -4.6643    1.0018   -0.6154 C   0  0  0  0  0  0  0  0  0  0  0  0
   -4.6662    2.0715    0.2635 C   0  0  0  0  0  0  0  0  0  0  0  0
   -5.7611    2.7355    0.7294 O   0  0  0  0  0  0  0  0  0  0  0  0
    1.2986    0.0478    3.3580 O   0  0  0  0  0  0  0  0  0  0  0  0
    2.5401    0.1010    4.0416 C   0  0  0  0  0  0  0  0  0  0  0  0
   -7.0024    2.3096    0.1915 C   0  0  0  0  0  0  0  0  0  0  0  0
   -7.2612    2.8648   -1.2082 C   0  0  0  0  0  0  0  0  0  0  0  0
   -8.5821    2.3339   -1.7629 C   0  0  0  0  0  0  0  0  0  0  0  0
   -8.9164    2.9067   -3.1491 C   0  0  2  0  0  0  0  0  0  0  0  0
   -9.3116    4.3815   -3.0933 C   0  0  0  0  0  0  0  0  0  0  0  0
  -10.1130    2.1818   -3.7412 C   0  0  0  0  0  0  0  0  0  0  0  0
  -11.2119    2.6657   -3.7756 O   0  0  0  0  0  0  0  0  0  0  0  0
   -9.8107    0.9017   -4.0319 O   0  0  0  0  0  0  0  0  0  0  0  0
  -10.8650    0.1018   -4.5418 C   0  0  0  0  0  0  0  0  0  0  0  0
  -11.8261   -0.3750   -3.4417 C   0  0  0  0  0  0  0  0  0  0  0  0
  -12.8152   -1.2806   -3.8777 O   0  0  0  0  0  0  0  0  0  0  0  0
  2  1  2  0
  3  2  1  0
  4  1  1  0
  5  4  2  0
  6  5  1  0
  6  3  2  0
  7  1  1  0
  8  5  1  0
  9  7  1  0
 10  9  2  0
 11  9  1  0
 12 10  1  0
 13 11  2  0
 14 13  1  0
 14 12  2  0
 15 14  1  0
 16  3  1  0
 17 16  1  0
 18 15  1  0
 19 18  1  0
 20 19  1  0
 21 20  1  0
 21 22  1  1
 23 21  1  0
 24 23  2  0
 25 23  1  0
 26 25  1  0
 27 26  1  0
 28 27  1  0
M  END
>  <SMILES>  (40) 
COc1cc(Nc2ccc(OCCCC(C)C(=O)OCCO)cc2)nc(N)n1

>  <scaffold>  (40) 
pyrimidine

$$$$

     RDKit          3D

 24 25  0  0  0  0  0  0  0  0999 V2000
    0.0000    0.0000    0.0000 C   0  0  0  0  0  0  0  0  0  0  0  0
   -0.0000    0.0000    1.3625 C   0  0  0  0  0  0  0  0  0  0  0  0
    1.2607   -0.0000    2.0812 C   0  0  0  0  0  0  0  0  0  0  0  0
    1.1453   -0.0000   -0.7380 N   0  0  0  0  0  0  0  0  0  0  0  0
    2.2955    0.0000   -0.1449 C   0  0  0  0  0  0  0  0  0  0  0  0
    2.4250    0.0000    1.1959 N   0  0  0  0  0  0  0  0  0  0  0  0
    1.4388   -0.0477    3.2752 O   0  0  0  0  0  0  0  0  0  0  0  0
    3.4192    0.0494   -0.9278 N   0  0  0  0  0  0  0  0  0  0  0  0
   -1.2481    0.0000   -0.8042 C   0  0  0  0  0  0  0  0  0  0  0  0
   -1.2697    0.0000    2.1807 C   0  0  0  0  0  0  0  0  0  0  0  0
    4.6550    0.0026   -0.4339 N   0  0  0  0  0  0  0  0  0  0  0  0
    5.6708    0.0972   -1.1937 C   0  0  0  0  0  0  0  0  0  0  0  0
    7.0270    0.1040   -0.7013 C   0  0  0  0  0  0  0  0  0  0  0  0
    8.1069    0.2598   -1.5692 C   0  0  0  0  0  0  0  0  0  0  0  0
    7.3260   -0.0557    0.6510 C   0  0  0  0  0  0  0  0  0  0  0  0
    9.4002    0.3211   -1.1448 C   0  0  0  0  0  0  0  0  0  0  0  0
    8.6340    0.0068    1.0808 C   0  0  0  0  0  0  0  0  0  0  0  0
    9.6866    0.2249    0.2326 C   0  0  0  0  0  0  0  0  0  0  0  0
   10.9859    0.3499    0.5327 O   0  0  0  0  0  0  0  0  0  0  0  0
   11.4112    0.2159    1.8876 C   0  0  1  0  0  0  0  0  0  0  0  0
   11.4500   -1.2463    2.3291 C   0  0  0  0  0  0  0  0  0  0  0  0
   12.7907    0.8728    1.8921 C   0  0  0  0  0  0  0  0  0  0  0  0
   12.7069    2.3696    1.5973 C   0  0  0  0  0  0  0  0  0  0  0  0
   12.2471    3.0636    2.6760 F   0  0  0  0  0  0  0  0  0  0  0  0
  2  1  2  0
  3  2  1  0
  4  1  1  0
  5  4  2  0
  6  5  1  0
  6  3  1  0
  7  3  2  0
  8  5  1  0
  9  1  1  0
 10  2  1  0
 11  8  1  0
 12 11  2  0
 13 12  1  0
 14 13  2  0
 15 13  1  0
 16 14  1  0
 17 15  2  0
 18 17  1  0
 18 16  2  0
 19 18  1  0
 20 19  1  0
 20 21  1  6
 22 20  1  0
 23 22  1  0
 24 23  1  0
M  END
>  <SMILES>  (41) 
Cc1nc(NN=Cc2ccc(OC(C)CCF)cc2)[nH]c(=O)c1C

>  <scaffold>  (41) 
pyrimidine

$$$$

     RDKit          3D

 32 34  0  0  0  0  0  0  0  0999 V2000
    0.0000   -0.0000   -0.0000 C   0  0  0  0  0  0  0  0  0  0  0  0
    0.0000   -0.0000    1.3704 C   0  0  0  0  0  0  0  0  0  0  0  0
    1.2903    0.0000    1.9974 C   0  0  0  0  0  0  0  0  0  0  0  0
    1.1388    0.0559   -0.6583 N   0  0  0  0  0  0  0  0  0  0  0  0
    2.2855    0.0559    0.0038 C   0  0  0  0  0  0  0  0  0  0  0  0
    2.4115   -0.0553    1.3095 N   0  0  0  0  0  0  0  0  0  0  0  0
   -1.0515   -0.0000    2.2123 O   0  0  0  0  0  0  0  0  0  0  0  0
    1.3423   -0.1254    3.3221 N   0  0  0  0  0  0  0  0  0  0  0  0
   -2.3588    0.0000    1.6835 C   0  0  0  0  0  0  0  0  0  0  0  0
   -2.6084    1.1468    0.9017 O   0  0  0  0  0  0  0  0  0  0  0  0
   -2.7930    2.3691    1.5112 C   0  0  0  0  0  0  0  0  0  0  0  0
   -2.5094    2.5638    2.8458 C   0  0  0  0  0  0  0  0  0  0  0  0
   -3.2334    3.4168    0.7176 C   0  0  0  0  0  0  0  0  0  0  0  0
   -2.6838    3.8360    3.3243 C   0  0  0  0  0  0  0  0  0  0  0  0
   -3.4035    4.6967    1.1995 C   0  0  0  0  0  0  0  0  0  0  0  0
   -3.1173    4.9424    2.5951 C   0  0  0  0  0  0  0  0  0  0  0  0
   -3.2024    6.1807    3.1758 O   0  0  0  0  0  0  0  0  0  0  0  0
   -3.8149    7.2603    2.5588 C   0  0  0  0  0  0  0  0  0  0  0  0
   -3.1206    8.4380    2.3299 C   0  0  0  0  0  0  0  0  0  0  0  0
   -5.1549    7.1314    2.2283 C   0  0  0  0  0  0  0  0  0  0  0  0
   -3.6753    9.5251    1.6728 C   0  0  0  0  0  0  0  0  0  0  0  0
   -5.7364    8.2533    1.6586 C   0  0  0  0  0  0  0  0  0  0  0  0
   -5.0031    9.4177    1.2895 C   0  0  0  0  0  0  0  0  0  0  0  0
   -2.8722   10.7450    1.4057 C   0  0  0  0  0  0  0  0  0  0  0  0
   -1.6810   10.7448    1.5614 O   0  0  0  0  0  0  0  0  0  0  0  0
   -3.5856   11.7744    0.9762 O   0  0  0  0  0  0  0  0  0  0  0  0
   -2.9372   13.0221    0.7365 C   0  0  0  0  0  0  0  0  0  0  0  0
   -2.6416   13.7692    2.0361 C   0  0  0  0  0  0  0  0  0  0  0  0
   -3.9051   14.0709    2.8405 C   0  0  0  0  0  0  0  0  0  0  0  0
   -3.5507   14.7684    4.1528 C   0  0  0  0  0  0  0  0  0  0  0  0
   -4.7707   15.0419    5.0158 C   0  0  0  0  0  0  0  0  0  0  0  0
   -4.3698   15.7872    6.2879 C   0  0  0  0  0  0  0  0  0  0  0  0
  2  1  2  0
  3  2  1  0
  4  1  1  0
  5  4  2  0
  6  5  1  0
  6  3  2  0
  7  2  1  0
  8  3  1  0
  9  7  1  0
 10  9  1  0
 11 10  1  0
 12 11  2  0
 13 11  1  0
 14 12  1  0
 15 13  2  0
 16 15  1  0
 16 14  2  0
 17 16  1  0
 18 17  1  0
 19 18  2  0
 20 18  1  0
 21 19  1  0
 22 20  2  0
 23 22  1  0
 23 21  2  0
 24 21  1  0
 25 24  2  0
 26 24  1  0
 27 26  1  0
 28 27  1  0
 29 28  1  0
 30 29  1  0
 31 30  1  0
 32 31  1  0
M  END
>  <SMILES>  (42) 
CCCCCCOC(=O)c1cccc(Oc2ccc(OCOc3cncnc3N)cc2)c1

>  <scaffold>  (42) 
pyrimidine

$$$$

     RDKit          3D

 14 15  0  0  0  0  0  0  0  0999 V2000
   -0.0000   -0.0000   -0.0000 C   0  0  0  0  0  0  0  0  0  0  0  0
   -0.0000   -0.0000    1.4021 C   0  0  0  0  0  0  0  0  0  0  0  0
    1.2509   -0.0000    2.0356 C   0  0  0  0  0  0  0  0  0  0  0  0
    1.1768   -0.0000   -0.6069 N   0  0  0  0  0  0  0  0  0  0  0  0
    2.2962   -0.0000    0.1145 C   0  0  0  0  0  0  0  0  0  0  0  0
    2.4161    0.0000    1.4180 N   0  0  0  0  0  0  0  0  0  0  0  0
   -1.1585   -0.0569    2.0718 F   0  0  0  0  0  0  0  0  0  0  0  0
   -1.1904    0.0000   -0.6139 O   0  0  0  0  0  0  0  0  0  0  0  0
   -1.2407   -0.0503   -2.0062 C   0  0  0  0  0  0  0  0  0  0  0  0
   -0.7297   -1.1174   -2.7436 C   0  0  0  0  0  0  0  0  0  0  0  0
   -1.9320    0.9464   -2.6934 C   0  0  0  0  0  0  0  0  0  0  0  0
   -0.8470   -1.1459   -4.1245 C   0  0  0  0  0  0  0  0  0  0  0  0
   -2.0491    0.9116   -4.0505 C   0  0  0  0  0  0  0  0  0  0  0  0
   -1.5323   -0.1256   -4.7654 C   0  0  0  0  0  0  0  0  0  0  0  0
  2  1  2  0
  3  2  1  0
  4  1  1  0
  5  4  2  0
  6  5  1  0
  6  3  2  0
  7  2  1  0
  8  1  1  0
  9  8  1  0
 10  9  2  0
 11  9  1  0
 12 10  1  0
 13 11  2  0
 14 13  1  0
 14 12  2  0
M  END
>  <SMILES>  (43) 
Fc1cncnc1Oc1ccccc1

>  <scaffold>  (43) 
pyrimidine

$$$$

     RDKit          3D

 29 31  0  0  0  0  0  0  0  0999 V2000
   -0.0000    0.0000    0.0000 N   0  0  0  0  0  0  0  0  0  0  0  0
   -0.0000    0.0000    1.3241 C   0  0  0  0  0  0  0  0  0  0  0  0
    1.0483    0.0000    2.1205 N   0  0  0  0  0  0  0  0  0  0  0  0
    1.1904    0.0000   -0.6139 C   0  0  0  0  0  0  0  0  0  0  0  0
    2.3758    0.0000    0.1500 C   0  0  0  0  0  0  0  0  0  0  0  0
    2.1690   -0.0562    1.5438 C   0  0  0  0  0  0  0  0  0  0  0  0
    4.0421    0.0687   -0.3210 S   0  0  0  0  0  0  0  0  0  0  0  0
    3.4841   -0.1038    2.1354 C   0  0  0  0  0  0  0  0  0  0  0  0
    4.5945   -0.0539    1.3170 C   0  0  0  0  0  0  0  0  0  0  0  0
    1.0621   -0.0531   -1.9693 N   0  0  0  0  0  0  0  0  0  0  0  0
    3.4864   -0.1087    3.5865 C   0  0  0  0  0  0  0  0  0  0  0  0
    2.8310    0.6021    4.5467 C   0  0  0  0  0  0  0  0  0  0  0  0
    4.4857   -0.8778    4.1026 O   0  0  0  0  0  0  0  0  0  0  0  0
    3.2535    0.2225    5.8374 C   0  0  0  0  0  0  0  0  0  0  0  0
    4.3086   -0.6775    5.4150 C   0  0  0  0  0  0  0  0  0  0  0  0
    5.2567   -1.4669    6.2412 C   0  0  0  0  0  0  0  0  0  0  0  0
    4.9407   -2.9617    6.2317 C   0  0  0  0  0  0  0  0  0  0  0  0
    5.8553   -3.8125    7.1115 C   0  0  0  0  0  0  0  0  0  0  0  0
    5.4639   -5.2894    7.1095 C   0  0  0  0  0  0  0  0  0  0  0  0
    6.3149   -6.1753    8.0179 C   0  0  0  0  0  0  0  0  0  0  0  0
    5.9186   -7.6487    7.9382 C   0  0  0  0  0  0  0  0  0  0  0  0
    6.7044   -8.5702    8.8697 C   0  0  0  0  0  0  0  0  0  0  0  0
    6.3084  -10.0375    8.7123 C   0  0  0  0  0  0  0  0  0  0  0  0
    7.0272  -10.9951    9.6613 C   0  0  0  0  0  0  0  0  0  0  0  0
    6.5567  -12.4398    9.5010 C   0  0  0  0  0  0  0  0  0  0  0  0
    7.2844  -13.4467   10.3903 C   0  0  0  0  0  0  0  0  0  0  0  0
    6.7403  -14.8656   10.2319 C   0  0  0  0  0  0  0  0  0  0  0  0
    7.5265  -15.8292   11.0893 C   0  0  0  0  0  0  0  0  0  0  0  0
    8.4513  -15.6770   11.8297 O   0  0  0  0  0  0  0  0  0  0  0  0
  2  1  2  0
  3  2  1  0
  4  1  1  0
  5  4  2  0
  6  5  1  0
  6  3  2  0
  7  5  1  0
  8  6  1  0
  9  8  2  0
  9  7  1  0
 10  4  1  0
 11  8  1  0
 12 11  2  0
 13 11  1  0
 14 12  1  0
 15 13  1  0
 15 14  2  0
 16 15  1  0
 17 16  1  0
 18 17  1  0
 19 18  1  0
 20 19  1  0
 21 20  1  0
 22 21  1  0
 23 22  1  0
 24 23  1  0
 25 24  1  0
 26 25  1  0
 27 26  1  0
 28 27  1  0
 29 28  2  0
M  END
>  <SMILES>  (44) 
Nc1ncnc2c(-c3ccc(CCCCCCCCCCCCC=O)o3)csc12

>  <scaffold>  (44) 
pyrimidine

$$$$

     RDKit          3D

 28 30  0  0  0  0  0  0  0  0999 V2000
   -0.0000    0.0000   -0.0000 N   0  0  0  0  0  0  0  0  0  0  0  0
    0.0000    0.0000    1.3393 C   0  0  0  0  0  0  0  0  0  0  0  0
    1.0613   -0.0000    2.1184 N   0  0  0  0  0  0  0  0  0  0  0  0
    1.1768   -0.0000   -0.6069 C   0  0  0  0  0  0  0  0  0  0  0  0
    2.3487    0.0000    0.1483 C   0  0  0  0  0  0  0  0  0  0  0  0
    2.2131    0.0000    1.5519 C   0  0  0  0  0  0  0  0  0  0  0  0
    3.8326   -0.0614   -0.6861 Cl  0  0  0  0  0  0  0  0  0  0  0  0
   -1.2371   -0.0608    1.9071 N   0  0  0  0  0  0  0  0  0  0  0  0
    3.2988   -0.0478    2.3083 O   0  0  0  0  0  0  0  0  0  0  0  0
    3.2170    0.0004    3.6992 C   0  0  0  0  0  0  0  0  0  0  0  0
    4.0675   -0.8509    4.4189 C   0  0  0  0  0  0  0  0  0  0  0  0
    2.4448    0.9288    4.3636 C   0  0  0  0  0  0  0  0  0  0  0  0
    4.0570   -0.8026    5.7963 C   0  0  0  0  0  0  0  0  0  0  0  0
    2.4337    0.9695    5.7570 C   0  0  0  0  0  0  0  0  0  0  0  0
    3.2580    0.1186    6.4720 C   0  0  0  0  0  0  0  0  0  0  0  0
    4.8534   -1.6809    3.7063 O   0  0  0  0  0  0  0  0  0  0  0  0
    5.6840   -2.5856    4.3828 C   0  0  0  0  0  0  0  0  0  0  0  0
    1.6033    2.0527    6.4436 C   0  0  2  0  0  0  0  0  0  0  0  0
    0.7872    2.8159    5.5965 O   0  0  0  0  0  0  0  0  0  0  0  0
    2.5123    3.0306    7.1865 C   0  0  0  0  0  0  0  0  0  0  0  0
    2.3250    3.3375    8.5089 C   0  0  0  0  0  0  0  0  0  0  0  0
    3.5632    3.6234    6.4882 C   0  0  0  0  0  0  0  0  0  0  0  0
    3.1406    4.2629    9.1238 C   0  0  0  0  0  0  0  0  0  0  0  0
    4.3696    4.5382    7.0961 C   0  0  0  0  0  0  0  0  0  0  0  0
    4.1723    4.9202    8.4552 C   0  0  0  0  0  0  0  0  0  0  0  0
    5.0283    5.7993    9.0296 N   0  0  0  0  0  0  0  0  0  0  0  0
    4.9787    6.2435   10.3756 C   0  0  0  0  0  0  0  0  0  0  0  0
    3.8541    7.2511   10.6603 C   0  0  0  0  0  0  0  0  0  0  0  0
  2  1  2  0
  3  2  1  0
  4  1  1  0
  5  4  2  0
  6  5  1  0
  6  3  2  0
  7  5  1  0
  8  2  1  0
  9  6  1  0
 10  9  1  0
 11 10  2  0
 12 10  1  0
 13 11  1  0
 14 12  2  0
 15 14  1  0
 15 13  2  0
 16 11  1  0
 17 16  1  0
 18 14  1  0
 18 19  1  6
 20 18  1  0
 21 20  2  0
 22 20  1  0
 23 21  1  0
 24 22  2  0
 25 24  1  0
 25 23  2  0
 26 25  1  0
 27 26  1  0
 28 27  1  0
M  END
>  <SMILES>  (45) 
CCNc1ccc(C(O)c2ccc(OC)c(Oc3nc(N)ncc3Cl)c2)cc1

>  <scaffold>  (45) 
pyrimidine

$$$$

     RDKit          3D

 24 25  0  0  0  0  0  0  0  0999 V2000
   -0.0000   -0.0000    0.0000 N   0  0  0  0  0  0  0  0  0  0  0  0
    0.0000    0.0000    1.3241 C   0  0  0  0  0  0  0  0  0  0  0  0
    1.0801   -0.0000    2.0900 N   0  0  0  0  0  0  0  0  0  0  0  0
    1.1701    0.0000   -0.6034 C   0  0  0  0  0  0  0  0  0  0  0  0
    2.3487    0.0000    0.1561 C   0  0  0  0  0  0  0  0  0  0  0  0
    2.2807   -0.0603    1.5714 C   0  0  0  0  0  0  0  0  0  0  0  0
   -1.2161   -0.0597    1.8822 O   0  0  0  0  0  0  0  0  0  0  0  0
    3.3399   -0.1190    2.4016 N   0  0  0  0  0  0  0  0  0  0  0  0
   -1.4534    0.0825    3.2163 C   0  0  0  0  0  0  0  0  0  0  0  0
   -0.5970    0.7417    3.9682 N   0  0  0  0  0  0  0  0  0  0  0  0
   -2.6985   -0.3920    3.6781 C   0  0  0  0  0  0  0  0  0  0  0  0
   -0.8866    0.8930    5.2280 N   0  0  0  0  0  0  0  0  0  0  0  0
   -2.9995   -0.2266    4.9967 C   0  0  0  0  0  0  0  0  0  0  0  0
   -1.9746    0.4358    5.8116 C   0  0  0  0  0  0  0  0  0  0  0  0
    3.5807    0.0492   -0.4239 O   0  0  0  0  0  0  0  0  0  0  0  0
   -2.2523    0.6557    7.0953 O   0  0  0  0  0  0  0  0  0  0  0  0
   -1.2817    1.3716    7.8568 C   0  0  0  0  0  0  0  0  0  0  0  0
   -0.0919    0.4891    8.2654 C   0  0  2  0  0  0  0  0  0  0  0  0
   -0.5210   -0.7119    9.1067 C   0  0  0  0  0  0  0  0  0  0  0  0
    0.9419    1.3144    9.0299 C   0  0  0  0  0  0  0  0  0  0  0  0
    2.1727    0.4938    9.4122 C   0  0  0  0  0  0  0  0  0  0  0  0
    3.1484    1.3483   10.2197 C   0  0  0  0  0  0  0  0  0  0  0  0
    4.4309    0.5838   10.5829 C   0  0  0  0  0  0  0  0  0  0  0  0
    5.4528    1.5452   11.1876 C   0  0  0  0  0  0  0  0  0  0  0  0
  2  1  2  0
  3  2  1  0
  4  1  1  0
  5  4  2  0
  6  5  1  0
  6  3  2  0
  7  2  1  0
  8  6  1  0
  9  7  1  0
 10  9  2  0
 11  9  1  0
 12 10  1  0
 13 11  2  0
 14 13  1  0
 14 12  2  0
 15  5  1  0
 16 14  1  0
 17 16  1  0
 18 17  1  0
 18 19  1  1
 20 18  1  0
 21 20  1  0
 22 21  1  0
 23 22  1  0
 24 23  1  0
M  END
>  <SMILES>  (46) 
CCCCCC(C)COc1ccc(Oc2ncc(O)c(N)n2)nn1

>  <scaffold>  (46) 
pyrimidine

$$$$

     RDKit          3D

 18 19  0  0  0  0  0  0  0  0999 V2000
    0.0000   -0.0000    0.0000 N   0  0  0  0  0  0  0  0  0  0  0  0
   -0.0000    0.0000    1.3241 C   0  0  0  0  0  0  0  0  0  0  0  0
    1.0988   -0.0000    2.0764 N   0  0  0  0  0  0  0  0  0  0  0  0
    1.1519   -0.0566   -0.6658 C   0  0  0  0  0  0  0  0  0  0  0  0
    2.3523   -0.0566    0.0272 C   0  0  0  0  0  0  0  0  0  0  0  0
    2.2854    0.0052    1.4426 C   0  0  0  0  0  0  0  0  0  0  0  0
   -1.2110    0.0000    1.9486 N   0  0  0  0  0  0  0  0  0  0  0  0
    1.0211   -0.1034   -2.0213 N   0  0  0  0  0  0  0  0  0  0  0  0
    3.4405    0.0567    2.1634 N   0  0  0  0  0  0  0  0  0  0  0  0
    3.7257    0.0670    3.5280 C   0  0  0  0  0  0  0  0  0  0  0  0
    5.0508    0.1822    3.9459 C   0  0  0  0  0  0  0  0  0  0  0  0
    2.7267   -0.0468    4.4821 C   0  0  0  0  0  0  0  0  0  0  0  0
    5.4603    0.1506    5.2532 C   0  0  0  0  0  0  0  0  0  0  0  0
    3.1414   -0.0773    5.8044 C   0  0  0  0  0  0  0  0  0  0  0  0
    4.4900   -0.0075    6.2417 C   0  0  0  0  0  0  0  0  0  0  0  0
    5.0223   -0.0765    7.4940 O   0  0  0  0  0  0  0  0  0  0  0  0
    4.0747   -0.1861    8.5326 C   0  0  0  0  0  0  0  0  0  0  0  0
    3.4220    1.1500    8.8837 C   0  0  0  0  0  0  0  0  0  0  0  0
  2  1  2  0
  3  2  1  0
  4  1  1  0
  5  4  2  0
  6  5  1  0
  6  3  2  0
  7  2  1  0
  8  4  1  0
  9  6  1  0
 10  9  1  0
 11 10  2  0
 12 10  1  0
 13 11  1  0
 14 12  2  0
 15 13  2  0
 15 14  1  0
 16 15  1  0
 17 16  1  0
 18 17  1  0
M  END
>  <SMILES>  (47) 
CCOc1ccc(Nc2cc(N)nc(N)n2)cc1

>  <scaffold>  (47) 
pyrimidine

$$$$

     RDKit          3D

 31 33  0  0  0  0  0  0  0  0999 V2000
   -0.0000   -0.0000   -0.0000 N   0  0  0  0  0  0  0  0  0  0  0  0
    0.0000   -0.0000    1.3317 C   0  0  0  0  0  0  0  0  0  0  0  0
    1.0863   -0.0000    2.1020 N   0  0  0  0  0  0  0  0  0  0  0  0
    1.1585    0.0569   -0.6697 C   0  0  0  0  0  0  0  0  0  0  0  0
    2.3739    0.1766    0.0354 C   0  0  0  0  0  0  0  0  0  0  0  0
    2.2387    0.0588    1.4179 C   0  0  0  0  0  0  0  0  0  0  0  0
   -1.1904   -0.0000    1.9456 N   0  0  0  0  0  0  0  0  0  0  0  0
    3.5938    0.3900   -0.5138 O   0  0  0  0  0  0  0  0  0  0  0  0
    1.0277    0.1037   -2.0251 N   0  0  0  0  0  0  0  0  0  0  0  0
    2.0236   -0.0742   -2.8794 N   0  0  0  0  0  0  0  0  0  0  0  0
    1.7931    0.0409   -4.1326 C   0  0  0  0  0  0  0  0  0  0  0  0
    2.8332   -0.1942   -5.1046 C   0  0  0  0  0  0  0  0  0  0  0  0
    2.5870    0.1398   -6.4272 C   0  0  0  0  0  0  0  0  0  0  0  0
    4.0400   -0.7820   -4.7282 C   0  0  0  0  0  0  0  0  0  0  0  0
    3.5734   -0.0218   -7.3875 C   0  0  0  0  0  0  0  0  0  0  0  0
    5.0281   -0.9426   -5.6870 C   0  0  0  0  0  0  0  0  0  0  0  0
    4.7922   -0.5754   -7.0279 C   0  0  0  0  0  0  0  0  0  0  0  0
    3.2285    0.3922   -8.6475 O   0  0  0  0  0  0  0  0  0  0  0  0
    6.2118   -1.5425   -5.4559 O   0  0  0  0  0  0  0  0  0  0  0  0
    6.5096   -2.1175   -4.2032 C   0  0  0  0  0  0  0  0  0  0  0  0
    4.0283   -0.0597   -9.6856 C   0  0  0  0  0  0  0  0  0  0  0  0
    4.2502   -1.4003   -9.9972 C   0  0  0  0  0  0  0  0  0  0  0  0
    4.5774    0.8950  -10.5273 C   0  0  0  0  0  0  0  0  0  0  0  0
    5.0200   -1.8038  -11.0770 C   0  0  0  0  0  0  0  0  0  0  0  0
    5.3304    0.4948  -11.5900 C   0  0  0  0  0  0  0  0  0  0  0  0
    5.5311   -0.8083  -11.8951 C   0  0  0  0  0  0  0  0  0  0  0  0
    6.3427   -1.1591  -12.9523 N   0  0  0  0  0  0  0  0  0  0  0  0
    7.1202   -2.3363  -13.0981 C   0  0  0  0  0  0  0  0  0  0  0  0
    8.1774   -2.3745  -12.1170 O   0  0  0  0  0  0  0  0  0  0  0  0
    8.1095   -3.2808  -11.1332 C   0  0  0  0  0  0  0  0  0  0  0  0
    7.1996   -4.0716  -10.9324 O   0  0  0  0  0  0  0  0  0  0  0  0
  2  1  2  0
  3  2  1  0
  4  1  1  0
  5  4  2  0
  6  5  1  0
  6  3  2  0
  7  2  1  0
  8  5  1  0
  9  4  1  0
 10  9  1  0
 11 10  2  0
 12 11  1  0
 13 12  2  0
 14 12  1  0
 15 13  1  0
 16 14  2  0
 17 16  1  0
 17 15  2  0
 18 15  1  0
 19 16  1  0
 20 19  1  0
 21 18  1  0
 22 21  2  0
 23 21  1  0
 24 22  1  0
 25 23  2  0
 26 25  1  0
 26 24  2  0
 27 26  1  0
 28 27  1  0
 29 28  1  0
 30 29  1  0
 31 30  2  0
M  END
>  <SMILES>  (48) 
COc1cc(C=NNc2nc(N)ncc2O)cc(Oc2ccc(NCOC=O)cc2)c1

>  <scaffold>  (48) 
pyrimidine

$$$$

     RDKit          3D

 30 31  0  0  0  0  0  0  0  0999 V2000
    0.0000   -0.0000   -0.0000 C   0  0  0  0  0  0  0  0  0  0  0  0
   -0.0000   -0.0000    1.4183 C   0  0  0  0  0  0  0  0  0  0  0  0
    1.2580    0.0000    2.0554 C   0  0  0  0  0  0  0  0  0  0  0  0
    1.1904    0.0000   -0.6139 N   0  0  0  0  0  0  0  0  0  0  0  0
    2.3034   -0.0000    0.1034 C   0  0  0  0  0  0  0  0  0  0  0  0
    2.4240    0.0000    1.4143 N   0  0  0  0  0  0  0  0  0  0  0  0
   -0.9622   -0.0504    2.3816 N   0  0  0  0  0  0  0  0  0  0  0  0
   -0.3972   -0.0702    3.5130 N   0  0  0  0  0  0  0  0  0  0  0  0
    0.9398   -0.0869    3.4368 N   0  0  0  0  0  0  0  0  0  0  0  0
   -1.1194   -0.0000   -0.7213 N   0  0  0  0  0  0  0  0  0  0  0  0
    1.8799   -0.1679    4.5175 C   0  0  0  0  0  0  0  0  0  0  0  0
    1.5888   -1.4551    5.2873 C   0  0  0  0  0  0  0  0  0  0  0  0
    1.8354   -2.7227    4.4708 C   0  0  0  0  0  0  0  0  0  0  0  0
    1.5826   -3.9798    5.3016 C   0  0  0  0  0  0  0  0  0  0  0  0
    1.8684   -5.2766    4.5458 C   0  0  0  0  0  0  0  0  0  0  0  0
    1.6529   -6.4995    5.4359 C   0  0  0  0  0  0  0  0  0  0  0  0
    1.9786   -7.8213    4.7423 C   0  0  0  0  0  0  0  0  0  0  0  0
    1.7993   -9.0063    5.6900 C   0  0  0  0  0  0  0  0  0  0  0  0
    2.0605  -10.3583    5.0280 C   0  0  0  0  0  0  0  0  0  0  0  0
    1.9215  -11.5037    6.0295 C   0  0  0  0  0  0  0  0  0  0  0  0
    2.2268  -12.8750    5.4288 C   0  0  0  0  0  0  0  0  0  0  0  0
    2.1269  -13.9772    6.4822 C   0  0  0  0  0  0  0  0  0  0  0  0
    2.3702  -15.3767    5.9195 C   0  0  0  0  0  0  0  0  0  0  0  0
    2.3131  -16.4345    7.0205 C   0  0  0  0  0  0  0  0  0  0  0  0
    2.6063  -17.8556    6.5147 C   0  0  0  0  0  0  0  0  0  0  0  0
    2.5908  -18.8597    7.6546 C   0  0  0  0  0  0  0  0  0  0  0  0
    3.5545  -19.3784    8.1499 O   0  0  0  0  0  0  0  0  0  0  0  0
    1.3622  -18.9900    8.1517 O   0  0  0  0  0  0  0  0  0  0  0  0
    1.2260  -19.8674    9.2681 C   0  0  0  0  0  0  0  0  0  0  0  0
    1.1293  -21.3241    8.8174 C   0  0  0  0  0  0  0  0  0  0  0  0
  2  1  2  0
  3  2  1  0
  4  1  1  0
  5  4  2  0
  6  5  1  0
  6  3  2  0
  7  2  1  0
  8  7  2  0
  9  8  1  0
  9  3  1  0
 10  1  1  0
 11  9  1  0
 12 11  1  0
 13 12  1  0
 14 13  1  0
 15 14  1  0
 16 15  1  0
 17 16  1  0
 18 17  1  0
 19 18  1  0
 20 19  1  0
 21 20  1  0
 22 21  1  0
 23 22  1  0
 24 23  1  0
 25 24  1  0
 26 25  1  0
 27 26  2  0
 28 26  1  0
 29 28  1  0
 30 29  1  0
M  END
>  <SMILES>  (49) 
CCOC(=O)CCCCCCCCCCCCCCCn1nnc2c(N)ncnc21

>  <scaffold>  (49) 
pyrimidine

$$$$

     RDKit          3D

 18 19  0  0  0  0  0  0  0  0999 V2000
   -0.0000   -0.0000   -0.0000 N   0  0  0  0  0  0  0  0  0  0  0  0
   -0.0000    0.0000    1.3165 C   0  0  0  0  0  0  0  0  0  0  0  0
    1.0351    0.0000    2.1301 N   0  0  0  0  0  0  0  0  0  0  0  0
    1.1904    0.0000   -0.6139 C   0  0  0  0  0  0  0  0  0  0  0  0
    2.3826    0.0000    0.1544 C   0  0  0  0  0  0  0  0  0  0  0  0
    2.2508    0.0000    1.5184 C   0  0  0  0  0  0  0  0  0  0  0  0
    1.2387    0.0483   -1.9515 N   0  0  0  0  0  0  0  0  0  0  0  0
    0.1332   -0.0285   -2.9012 C   0  0  1  0  0  0  0  0  0  0  0  0
    0.7214    0.0144   -4.3106 C   0  0  0  0  0  0  0  0  0  0  0  0
   -0.5795   -1.3478   -2.6577 C   0  0  0  0  0  0  0  0  0  0  0  0
   -1.9457   -1.3734   -2.4773 C   0  0  0  0  0  0  0  0  0  0  0  0
    0.1275   -2.5400   -2.6742 C   0  0  0  0  0  0  0  0  0  0  0  0
   -2.5450   -2.5942   -2.2090 C   0  0  0  0  0  0  0  0  0  0  0  0
   -0.4632   -3.7483   -2.4117 C   0  0  0  0  0  0  0  0  0  0  0  0
   -1.8642   -3.8065   -2.1074 C   0  0  0  0  0  0  0  0  0  0  0  0
   -2.4025   -5.0194   -1.7981 N   0  0  0  0  0  0  0  0  0  0  0  0
   -3.8339   -5.2005   -1.7907 C   0  0  0  0  0  0  0  0  0  0  0  0
   -4.0219   -6.6113   -1.2351 C   0  0  0  0  0  0  0  0  0  0  0  0
  2  1  2  0
  3  2  1  0
  4  1  1  0
  5  4  2  0
  6  5  1  0
  6  3  2  0
  7  4  1  0
  8  7  1  0
  8  9  1  6
 10  8  1  0
 11 10  2  0
 12 10  1  0
 13 11  1  0
 14 12  2  0
 15 14  1  0
 15 13  2  0
 16 15  1  0
 17 16  1  0
 18 17  1  0
M  END
>  <SMILES>  (50) 
CCNc1ccc(C(C)Nc2ccncn2)cc1

>  <scaffold>  (50) 
pyrimidine

$$$$
