
     RDKit          3D

 33 35  0  0  0  0  0  0  0  0999 V2000
   -0.0000   -0.0000   -0.0000 N   0  0  0  0  0  0  0  0  0  0  0  0
    0.0000    0.0000    1.2867 C   0  0  0  0  0  0  0  0  0  0  0  0
    1.1238    0.0000    2.0293 N   0  0  0  0  0  0  0  0  0  0  0  0
    1.2110   -0.0000   -0.6245 C   0  0  0  0  0  0  0  0  0  0  0  0
    2.4220   -0.0000   -0.0000 C   0  0  0  0  0  0  0  0  0  0  0  0
    2.4220    0.0000    1.4511 C   0  0  0  0  0  0  0  0  0  0  0  0
    3.3960   -0.0475    2.1527 O   0  0  0  0  0  0  0  0  0  0  0  0
   -1.1258   -0.0000    2.0122 O   0  0  0  0  0  0  0  0  0  0  0  0
    3.7154    0.0536   -0.7272 C   0  0  0  0  0  0  0  0  0  0  0  0
   -2.3589   -0.1214    1.3732 C   0  0  0  0  0  0  0  0  0  0  0  0
   -2.6296   -1.0659    0.4292 C   0  0  0  0  0  0  0  0  0  0  0  0
   -3.3486    0.7398    1.8447 C   0  0  0  0  0  0  0  0  0  0  0  0
   -3.8870   -1.1791   -0.1432 C   0  0  0  0  0  0  0  0  0  0  0  0
   -4.5986    0.6215    1.2762 C   0  0  0  0  0  0  0  0  0  0  0  0
   -4.9008   -0.3367    0.3107 C   0  0  0  0  0  0  0  0  0  0  0  0
   -6.1679   -0.3796   -0.2690 N   0  0  0  0  0  0  0  0  0  0  0  0
   -6.6988   -1.1337   -1.2826 C   0  0  0  0  0  0  0  0  0  0  0  0
   -6.0251   -1.9493   -1.8520 O   0  0  0  0  0  0  0  0  0  0  0  0
   -8.1474   -0.8963   -1.5566 C   0  0  0  0  0  0  0  0  0  0  0  0
   -8.6384   -0.8567   -2.8779 C   0  0  0  0  0  0  0  0  0  0  0  0
   -9.0367   -0.7603   -0.4812 C   0  0  0  0  0  0  0  0  0  0  0  0
   -9.9985   -0.6828   -3.0812 C   0  0  0  0  0  0  0  0  0  0  0  0
  -10.3890   -0.5894   -0.6853 C   0  0  0  0  0  0  0  0  0  0  0  0
  -10.8830   -0.6069   -2.0062 C   0  0  0  0  0  0  0  0  0  0  0  0
   -7.7709   -0.9804   -3.9010 O   0  0  0  0  0  0  0  0  0  0  0  0
   -8.2078   -0.8965   -5.2391 C   0  0  0  0  0  0  0  0  0  0  0  0
  -12.2386   -0.4911   -2.0797 O   0  0  0  0  0  0  0  0  0  0  0  0
  -12.7852   -0.4447   -3.3614 C   0  0  0  0  0  0  0  0  0  0  0  0
  -14.2951   -0.3763   -3.1383 C   0  0  0  0  0  0  0  0  0  0  0  0
  -14.9376   -0.2691   -4.5107 C   0  0  0  0  0  0  0  0  0  0  0  0
  -16.4348   -0.1492   -4.2304 C   0  0  0  0  0  0  0  0  0  0  0  0
  -17.1387   -0.0925   -5.5952 C   0  0  0  0  0  0  0  0  0  0  0  0
  -18.6282   -0.0285   -5.2612 C   0  0  0  0  0  0  0  0  0  0  0  0
  2  1  2  0
  3  2  1  0
  4  1  1  0
  5  4  2  0
  6  5  1  0
  6  3  1  0
  7  6  2  0
  8  2  1  0
  9  5  1  0
 10  8  1  0
 11 10  2  0
 12 10  1  0
 13 11  1  0
 14 12  2  0
 15 14  1  0
 15 13  2  0
 16 15  1  0
 17 16  1  0
 18 17  2  0
 19 17  1  0
 20 19  2  0
 21 19  1  0
 22 20  1  0
 23 21  2  0
 24 23  1  0
 24 22  2  0
 25 20  1  0
 26 25  1  0
 27 24  1  0
 28 27  1  0
 29 28  1  0
 30 29  1  0
 31 30  1  0
 32 31  1  0
 33 32  1  0
M  END
>  <SMILES>  (1) 
CCCCCCOc1ccc(C(=O)Nc2ccc(Oc3ncc(C)c(=O)[nH]3)cc2)c(OC)c1

>  <scaffold>  (1) 
pyrimidine

$$$$

     RDKit          3D

 33 34  0  0  0  0  0  0  0  0999 V2000
   -0.0000   -0.0000    0.0000 C   0  0  0  0  0  0  0  0  0  0  0  0
   -0.0000   -0.0000    1.3862 C   0  0  0  0  0  0  0  0  0  0  0  0
    1.2364    0.0000    2.0643 C   0  0  0  0  0  0  0  0  0  0  0  0
    1.1719    0.0576   -0.6774 N   0  0  0  0  0  0  0  0  0  0  0  0
    2.2239   -0.0461    0.0818 C   0  0  0  0  0  0  0  0  0  0  0  0
    2.4059   -0.0764    1.3702 N   0  0  0  0  0  0  0  0  0  0  0  0
    1.3618    0.0519    3.3890 N   0  0  0  0  0  0  0  0  0  0  0  0
   -1.1333   -0.1116   -0.7338 N   0  0  0  0  0  0  0  0  0  0  0  0
    3.6785   -0.1278   -0.8566 S   0  0  0  0  0  0  0  0  0  0  0  0
    3.0979   -0.0998   -2.5751 C   0  0  0  0  0  0  0  0  0  0  0  0
    1.9466   -1.1029   -2.6265 C   0  0  0  0  0  0  0  0  0  0  0  0
    1.8889   -2.1635   -2.0364 O   0  0  0  0  0  0  0  0  0  0  0  0
    1.0135   -0.6717   -3.5091 N   0  0  0  0  0  0  0  0  0  0  0  0
   -0.2512   -1.2458   -3.7010 C   0  0  0  0  0  0  0  0  0  0  0  0
   -0.6574   -2.4518   -3.1514 C   0  0  0  0  0  0  0  0  0  0  0  0
   -1.1162   -0.4879   -4.4748 C   0  0  0  0  0  0  0  0  0  0  0  0
   -1.9467   -2.8867   -3.3704 C   0  0  0  0  0  0  0  0  0  0  0  0
   -2.3880   -0.9895   -4.6497 C   0  0  0  0  0  0  0  0  0  0  0  0
   -2.8785   -2.1832   -4.1176 C   0  0  0  0  0  0  0  0  0  0  0  0
   -4.1354   -2.6218   -4.2640 F   0  0  0  0  0  0  0  0  0  0  0  0
   -3.2778   -0.2870   -5.4611 N   0  0  0  0  0  0  0  0  0  0  0  0
   -3.2015    0.9585   -6.0084 C   0  0  0  0  0  0  0  0  0  0  0  0
   -2.2450    1.6750   -5.8314 O   0  0  0  0  0  0  0  0  0  0  0  0
   -4.2748    1.2082   -6.7696 O   0  0  0  0  0  0  0  0  0  0  0  0
   -4.4080    2.4946   -7.3905 C   0  0  0  0  0  0  0  0  0  0  0  0
   -4.9528    3.5205   -6.3980 C   0  0  0  0  0  0  0  0  0  0  0  0
   -5.1626    4.8813   -7.0191 C   0  0  0  0  0  0  0  0  0  0  0  0
   -5.1167    6.0813   -6.1029 C   0  0  0  0  0  0  0  0  0  0  0  0
   -5.2794    7.4292   -6.7844 C   0  0  0  0  0  0  0  0  0  0  0  0
   -5.2803    8.6050   -5.8087 C   0  0  0  0  0  0  0  0  0  0  0  0
   -5.4959    9.9798   -6.4394 C   0  0  0  0  0  0  0  0  0  0  0  0
   -5.5423   11.1073   -5.4223 C   0  0  0  0  0  0  0  0  0  0  0  0
   -5.7016   12.5099   -6.0068 C   0  0  0  0  0  0  0  0  0  0  0  0
  2  1  2  0
  3  2  1  0
  4  1  1  0
  5  4  2  0
  6  5  1  0
  6  3  2  0
  7  3  1  0
  8  1  1  0
  9  5  1  0
 10  9  1  0
 11 10  1  0
 12 11  2  0
 13 11  1  0
 14 13  1  0
 15 14  2  0
 16 14  1  0
 17 15  1  0
 18 16  2  0
 19 18  1  0
 19 17  2  0
 20 19  1  0
 21 18  1  0
 22 21  1  0
 23 22  2  0
 24 22  1  0
 25 24  1  0
 26 25  1  0
 27 26  1  0
 28 27  1  0
 29 28  1  0
 30 29  1  0
 31 30  1  0
 32 31  1  0
 33 32  1  0
M  END
>  <SMILES>  (2) 
CCCCCCCCCOC(=O)Nc1cc(NC(=O)CSc2nc(N)cc(N)n2)ccc1F

>  <scaffold>  (2) 
pyrimidine

$$$$

     RDKit          3D

 31 33  0  0  0  0  0  0  0  0999 V2000
   -0.0000    0.0000    0.0000 C   0  0  0  0  0  0  0  0  0  0  0  0
   -0.0000   -0.0000    1.3625 C   0  0  0  0  0  0  0  0  0  0  0  0
    1.2796    0.0000    2.0644 C   0  0  0  0  0  0  0  0  0  0  0  0
    1.0865   -0.0534   -0.7813 N   0  0  0  0  0  0  0  0  0  0  0  0
    2.3774   -0.1168   -0.2585 C   0  0  0  0  0  0  0  0  0  0  0  0
    2.4463   -0.1202    1.1101 N   0  0  0  0  0  0  0  0  0  0  0  0
    3.3723   -0.1225   -0.9193 O   0  0  0  0  0  0  0  0  0  0  0  0
    1.4598   -0.0483    3.2722 O   0  0  0  0  0  0  0  0  0  0  0  0
    0.9528    0.0099   -2.2249 C   0  0  0  0  0  0  0  0  0  0  0  0
   -1.3196   -0.0000    2.0431 C   0  0  0  0  0  0  0  0  0  0  0  0
   -2.3767    0.0519    1.4320 O   0  0  0  0  0  0  0  0  0  0  0  0
   -1.2702   -0.0494    3.4116 N   0  0  0  0  0  0  0  0  0  0  0  0
   -2.3823   -0.1116    4.2099 C   0  0  0  0  0  0  0  0  0  0  0  0
   -2.1727   -0.1019    5.8235 S   0  0  0  0  0  0  0  0  0  0  0  0
   -3.5621   -0.1796    3.5795 O   0  0  0  0  0  0  0  0  0  0  0  0
   -4.8057   -0.1955    4.1360 C   0  0  0  0  0  0  0  0  0  0  0  0
   -5.8256   -0.7898    3.4245 C   0  0  0  0  0  0  0  0  0  0  0  0
   -5.0476    0.3681    5.3969 C   0  0  0  0  0  0  0  0  0  0  0  0
   -7.1413   -0.8215    3.8595 C   0  0  0  0  0  0  0  0  0  0  0  0
   -6.3410    0.3377    5.8243 C   0  0  0  0  0  0  0  0  0  0  0  0
   -7.4172   -0.1638    5.0480 C   0  0  0  0  0  0  0  0  0  0  0  0
   -8.7206   -0.1265    5.4945 N   0  0  0  0  0  0  0  0  0  0  0  0
  -10.1446   -0.2798    4.5904 S   0  0  0  0  0  6  0  0  0  0  0  0
  -10.0937   -1.5281    3.9363 O   0  0  0  0  0  0  0  0  0  0  0  0
  -11.2634   -0.0135    5.4480 O   0  0  0  0  0  0  0  0  0  0  0  0
  -10.0397    1.0458    3.4175 C   0  0  0  0  0  0  0  0  0  0  0  0
  -10.1299    2.3496    3.8793 C   0  0  0  0  0  0  0  0  0  0  0  0
   -9.9093    0.7951    2.0846 C   0  0  0  0  0  0  0  0  0  0  0  0
  -10.0058    3.4009    3.0214 C   0  0  0  0  0  0  0  0  0  0  0  0
   -9.7822    1.8574    1.2158 C   0  0  0  0  0  0  0  0  0  0  0  0
   -9.7264    3.1536    1.6699 C   0  0  0  0  0  0  0  0  0  0  0  0
  2  1  2  0
  3  2  1  0
  4  1  1  0
  5  4  1  0
  6  5  1  0
  6  3  1  0
  7  5  2  0
  8  3  2  0
  9  4  1  0
 10  2  1  0
 11 10  2  0
 12 10  1  0
 13 12  1  0
 14 13  2  0
 15 13  1  0
 16 15  1  0
 17 16  2  0
 18 16  1  0
 19 17  1  0
 20 18  2  0
 21 19  2  0
 21 20  1  0
 22 21  1  0
 23 22  1  0
 24 23  2  0
 25 23  2  0
 26 23  1  0
 27 26  2  0
 28 26  1  0
 29 27  1  0
 30 28  2  0
 31 30  1  0
 31 29  2  0
M  END
>  <SMILES>  (3) 
Cn1cc(C(=O)NC(=S)Oc2ccc(NS(=O)(=O)c3ccccc3)cc2)c(=O)[nH]c1=O

>  <scaffold>  (3) 
pyrimidine

$$$$

     RDKit          3D

 20 22  0  0  0  0  0  0  0  0999 V2000
    0.0000   -0.0000    0.0000 N   0  0  0  0  0  0  0  0  0  0  0  0
   -0.0000   -0.0000    1.3241 C   0  0  0  0  0  0  0  0  0  0  0  0
    1.0613   -0.0000    2.1032 N   0  0  0  0  0  0  0  0  0  0  0  0
    1.1768   -0.0000   -0.6069 C   0  0  0  0  0  0  0  0  0  0  0  0
    2.3487    0.0000    0.1483 C   0  0  0  0  0  0  0  0  0  0  0  0
    2.2147    0.0000    1.5359 C   0  0  0  0  0  0  0  0  0  0  0  0
    3.2880    0.0472    2.2837 O   0  0  0  0  0  0  0  0  0  0  0  0
   -1.2091    0.0594    1.8790 O   0  0  0  0  0  0  0  0  0  0  0  0
    3.2150   -0.0802    3.6541 C   0  0  0  0  0  0  0  0  0  0  0  0
    2.4117   -1.0201    4.2633 C   0  0  0  0  0  0  0  0  0  0  0  0
    4.0342    0.7620    4.4192 C   0  0  0  0  0  0  0  0  0  0  0  0
    2.4089   -1.1422    5.6282 C   0  0  0  0  0  0  0  0  0  0  0  0
    4.0315    0.6380    5.7761 C   0  0  0  0  0  0  0  0  0  0  0  0
    3.2593   -0.3578    6.3917 C   0  0  0  0  0  0  0  0  0  0  0  0
   -1.4160    0.0147    3.2489 C   0  0  0  0  0  0  0  0  0  0  0  0
   -0.5732    0.6127    4.1847 C   0  0  0  0  0  0  0  0  0  0  0  0
   -2.5559   -0.6760    3.6575 C   0  0  0  0  0  0  0  0  0  0  0  0
   -0.9125    0.5442    5.5107 C   0  0  0  0  0  0  0  0  0  0  0  0
   -2.8992   -0.7443    4.9987 C   0  0  0  0  0  0  0  0  0  0  0  0
   -2.1080   -0.0581    5.9277 C   0  0  0  0  0  0  0  0  0  0  0  0
  2  1  2  0
  3  2  1  0
  4  1  1  0
  5  4  2  0
  6  5  1  0
  6  3  2  0
  7  6  1  0
  8  2  1  0
  9  7  1  0
 10  9  2  0
 11  9  1  0
 12 10  1  0
 13 11  2  0
 14 13  1  0
 14 12  2  0
 15  8  1  0
 16 15  2  0
 17 15  1  0
 18 16  1  0
 19 17  2  0
 20 19  1  0
 20 18  2  0
M  END
>  <SMILES>  (4) 
c1ccc(Oc2ccnc(Oc3ccccc3)n2)cc1

>  <scaffold>  (4) 
pyrimidine

$$$$

     RDKit          3D

 25 27  0  0  0  0  0  0  0  0999 V2000
   -0.0000    0.0000   -0.0000 C   0  0  0  0  0  0  0  0  0  0  0  0
    0.0000    0.0000    1.4264 C   0  0  0  0  0  0  0  0  0  0  0  0
    1.2710   -0.0000    2.0184 C   0  0  0  0  0  0  0  0  0  0  0  0
    1.1343    0.1683   -0.6620 N   0  0  0  0  0  0  0  0  0  0  0  0
    2.2755    0.2807    0.0000 C   0  0  0  0  0  0  0  0  0  0  0  0
    2.3567    0.1182    1.3116 N   0  0  0  0  0  0  0  0  0  0  0  0
   -1.1729    0.1155    2.1859 C   0  0  0  0  0  0  0  0  0  0  0  0
   -1.0505    0.0501    3.5413 C   0  0  0  0  0  0  0  0  0  0  0  0
    0.1598   -0.1245    4.2438 C   0  0  0  0  0  0  0  0  0  0  0  0
    1.2770   -0.1732    3.4517 C   0  0  0  0  0  0  0  0  0  0  0  0
    3.3722    0.4936   -0.6965 O   0  0  0  0  0  0  0  0  0  0  0  0
   -1.1846   -0.1167   -0.6139 O   0  0  0  0  0  0  0  0  0  0  0  0
   -1.3852    0.3152   -1.8822 C   0  0  0  0  0  0  0  0  0  0  0  0
   -0.6969    1.3332   -2.3331 N   0  0  0  0  0  0  0  0  0  0  0  0
   -2.3873   -0.3176   -2.6164 C   0  0  0  0  0  0  0  0  0  0  0  0
   -0.9550    1.7434   -3.5410 N   0  0  0  0  0  0  0  0  0  0  0  0
   -2.6636    0.1260   -3.9088 C   0  0  0  0  0  0  0  0  0  0  0  0
   -1.8376    1.2264   -4.3338 C   0  0  0  0  0  0  0  0  0  0  0  0
   -3.5643   -0.4346   -4.7264 O   0  0  0  0  0  0  0  0  0  0  0  0
   -4.2776   -1.5963   -4.3352 C   0  0  0  0  0  0  0  0  0  0  0  0
   -3.4079   -2.8485   -4.4346 C   0  0  0  0  0  0  0  0  0  0  0  0
   -4.2365   -4.0750   -4.0559 C   0  0  0  0  0  0  0  0  0  0  0  0
   -3.4256   -5.3628   -4.1922 C   0  0  0  0  0  0  0  0  0  0  0  0
   -4.2022   -6.6297   -3.7675 C   0  0  0  0  0  0  0  0  0  0  0  0
   -3.4565   -7.8730   -3.8300 N   0  0  0  0  0  0  0  0  0  0  0  0
  2  1  1  0
  3  2  2  0
  4  1  2  0
  5  4  1  0
  6  5  2  0
  6  3  1  0
  7  2  1  0
  8  7  2  0
  9  8  1  0
 10  9  2  0
 10  3  1  0
 11  5  1  0
 12  1  1  0
 13 12  1  0
 14 13  2  0
 15 13  1  0
 16 14  1  0
 17 15  2  0
 18 17  1  0
 18 16  2  0
 19 17  1  0
 20 19  1  0
 21 20  1  0
 22 21  1  0
 23 22  1  0
 24 23  1  0
 25 24  1  0
M  END
>  <SMILES>  (5) 
NCCCCCOc1cnnc(Oc2nc(O)nc3ccccc23)c1

>  <scaffold>  (5) 
pyrimidine

$$$$

     RDKit          3D

 24 26  0  0  0  0  0  0  0  0999 V2000
   -0.0000   -0.0000    0.0000 N   0  0  0  0  0  0  0  0  0  0  0  0
    0.0000    0.0000    1.3241 C   0  0  0  0  0  0  0  0  0  0  0  0
    1.0423    0.0000    2.1160 N   0  0  0  0  0  0  0  0  0  0  0  0
    1.1768   -0.0000   -0.6069 C   0  0  0  0  0  0  0  0  0  0  0  0
    2.3622    0.0000    0.1570 C   0  0  0  0  0  0  0  0  0  0  0  0
    2.2274   -0.0000    1.5526 C   0  0  0  0  0  0  0  0  0  0  0  0
    3.5942    0.0492   -0.4230 O   0  0  0  0  0  0  0  0  0  0  0  0
    3.3382   -0.0489    2.3265 N   0  0  0  0  0  0  0  0  0  0  0  0
    1.2251    0.0483   -1.9445 O   0  0  0  0  0  0  0  0  0  0  0  0
    0.0967   -0.0216   -2.7465 C   0  0  0  0  0  0  0  0  0  0  0  0
   -0.9211   -0.9206   -2.4687 C   0  0  0  0  0  0  0  0  0  0  0  0
    0.0166    0.8128   -3.8405 C   0  0  0  0  0  0  0  0  0  0  0  0
   -2.0010   -0.9880   -3.3225 C   0  0  0  0  0  0  0  0  0  0  0  0
   -1.0757    0.7435   -4.7041 C   0  0  0  0  0  0  0  0  0  0  0  0
   -2.0519   -0.2134   -4.4804 C   0  0  0  0  0  0  0  0  0  0  0  0
   -3.2677   -0.2834   -5.3446 C   0  0  0  0  0  0  0  0  0  0  0  0
   -1.1344    1.6061   -5.7270 O   0  0  0  0  0  0  0  0  0  0  0  0
   -1.9127    1.4118   -6.8477 C   0  0  0  0  0  0  0  0  0  0  0  0
   -1.9280    0.1819   -7.5038 C   0  0  0  0  0  0  0  0  0  0  0  0
   -2.6085    2.4890   -7.3741 C   0  0  0  0  0  0  0  0  0  0  0  0
   -2.6837    0.0496   -8.6488 C   0  0  0  0  0  0  0  0  0  0  0  0
   -3.3641    2.3532   -8.5281 C   0  0  0  0  0  0  0  0  0  0  0  0
   -3.3727    1.1280   -9.1816 C   0  0  0  0  0  0  0  0  0  0  0  0
   -4.1637    0.9339  -10.3130 N   0  0  0  0  0  0  0  0  0  0  0  0
  2  1  2  0
  3  2  1  0
  4  1  1  0
  5  4  2  0
  6  5  1  0
  6  3  2  0
  7  5  1  0
  8  6  1  0
  9  4  1  0
 10  9  1  0
 11 10  2  0
 12 10  1  0
 13 11  1  0
 14 12  2  0
 15 14  1  0
 15 13  2  0
 16 15  1  0
 17 14  1  0
 18 17  1  0
 19 18  2  0
 20 18  1  0
 21 19  1  0
 22 20  2  0
 23 22  1  0
 23 21  2  0
 24 23  1  0
M  END
>  <SMILES>  (6) 
Cc1ccc(Oc2ncnc(N)c2O)cc1Oc1ccc(N)cc1

>  <scaffold>  (6) 
pyrimidine

$$$$

     RDKit          3D

 22 23  0  0  0  0  0  0  0  0999 V2000
   -0.0000   -0.0000    0.0000 N   0  0  0  0  0  0  0  0  0  0  0  0
   -0.0000    0.0000    1.3241 C   0  0  0  0  0  0  0  0  0  0  0  0
    1.0215   -0.0000    2.1546 N   0  0  0  0  0  0  0  0  0  0  0  0
    1.1836   -0.0000   -0.6104 C   0  0  0  0  0  0  0  0  0  0  0  0
    2.3690    0.0000    0.1535 C   0  0  0  0  0  0  0  0  0  0  0  0
    2.2326    0.0000    1.5652 C   0  0  0  0  0  0  0  0  0  0  0  0
    3.7105   -0.0538   -0.0785 N   0  0  0  0  0  0  0  0  0  0  0  0
    3.5011   -0.0540    2.0597 N   0  0  0  0  0  0  0  0  0  0  0  0
    4.3629   -0.0704    1.0220 N   0  0  0  0  0  0  0  0  0  0  0  0
    3.9495   -0.0209    3.4395 C   0  0  0  0  0  0  0  0  0  0  0  0
    1.1214    0.0622   -2.3312 S   0  0  0  0  0  0  0  0  0  0  0  0
    3.2804   -1.1963    4.1503 C   0  0  0  0  0  0  0  0  0  0  0  0
    3.5100    1.3256    4.0122 C   0  0  0  0  0  0  0  0  0  0  0  0
   -0.6520    0.1795   -2.7881 C   0  0  0  0  0  0  0  0  0  0  0  0
   -1.1518    1.6171   -2.6544 C   0  0  1  0  0  0  0  0  0  0  0  0
   -0.6649    2.4926   -3.8080 C   0  0  0  0  0  0  0  0  0  0  0  0
   -2.6792    1.5844   -2.6710 C   0  0  0  0  0  0  0  0  0  0  0  0
   -3.2309    2.9970   -2.4847 C   0  0  0  0  0  0  0  0  0  0  0  0
   -4.7555    2.9024   -2.4540 C   0  0  0  0  0  0  0  0  0  0  0  0
   -5.3563    4.2865   -2.2143 C   0  0  0  0  0  0  0  0  0  0  0  0
   -6.8741    4.1290   -2.1381 C   0  0  0  0  0  0  0  0  0  0  0  0
   -7.5212    5.4815   -1.8441 C   0  0  0  0  0  0  0  0  0  0  0  0
  2  1  2  0
  3  2  1  0
  4  1  1  0
  5  4  2  0
  6  5  1  0
  6  3  2  0
  7  5  1  0
  8  6  1  0
  9  8  1  0
  9  7  2  0
 10  8  1  0
 11  4  1  0
 12 10  1  0
 13 10  1  0
 14 11  1  0
 15 14  1  0
 15 16  1  6
 17 15  1  0
 18 17  1  0
 19 18  1  0
 20 19  1  0
 21 20  1  0
 22 21  1  0
M  END
>  <SMILES>  (7) 
CCCCCCC(C)CSc1ncnc2c1nnn2C(C)C

>  <scaffold>  (7) 
pyrimidine

$$$$

     RDKit          3D

 14 15  0  0  0  0  0  0  0  0999 V2000
    0.0000    0.0000    0.0000 C   0  0  0  0  0  0  0  0  0  0  0  0
    0.0000   -0.0000    1.3941 C   0  0  0  0  0  0  0  0  0  0  0  0
    1.2366   -0.0000    2.0204 C   0  0  0  0  0  0  0  0  0  0  0  0
    1.1067    0.0000   -0.7131 N   0  0  0  0  0  0  0  0  0  0  0  0
    2.2261    0.0000    0.0082 C   0  0  0  0  0  0  0  0  0  0  0  0
    2.3556   -0.0000    1.3490 N   0  0  0  0  0  0  0  0  0  0  0  0
   -1.1652   -0.0572   -0.6735 F   0  0  0  0  0  0  0  0  0  0  0  0
    3.3766   -0.0483   -0.6757 N   0  0  0  0  0  0  0  0  0  0  0  0
    3.5817   -0.0368   -2.1039 C   0  0  0  0  0  0  0  0  0  0  0  0
    4.6201    0.9545   -2.4827 C   0  0  0  0  0  0  0  0  0  0  0  0
    5.8412    0.6726   -2.7405 N   0  0  0  0  0  0  0  0  0  0  0  0
    4.2645    2.6401   -2.4477 S   0  0  0  0  0  0  0  0  0  0  0  0
    6.6034    1.7692   -3.0105 C   0  0  0  0  0  0  0  0  0  0  0  0
    5.9080    2.9256   -2.9173 C   0  0  0  0  0  0  0  0  0  0  0  0
  2  1  2  0
  3  2  1  0
  4  1  1  0
  5  4  2  0
  6  5  1  0
  6  3  2  0
  7  1  1  0
  8  5  1  0
  9  8  1  0
 10  9  1  0
 11 10  2  0
 12 10  1  0
 13 11  1  0
 14 12  1  0
 14 13  2  0
M  END
>  <SMILES>  (8) 
Fc1ccnc(NCc2nccs2)n1

>  <scaffold>  (8) 
pyrimidine

$$$$

     RDKit          3D

 26 28  0  0  0  0  0  0  0  0999 V2000
   -0.0000   -0.0000   -0.0000 N   0  0  0  0  0  0  0  0  0  0  0  0
    0.0000    0.0000    1.3317 C   0  0  0  0  0  0  0  0  0  0  0  0
    1.0801    0.0000    2.0976 N   0  0  0  0  0  0  0  0  0  0  0  0
    1.1768    0.0000   -0.6069 C   0  0  0  0  0  0  0  0  0  0  0  0
    2.3690    0.0586    0.0822 C   0  0  0  0  0  0  0  0  0  0  0  0
    2.3021    0.0603    1.4908 C   0  0  0  0  0  0  0  0  0  0  0  0
   -1.5402    0.0000    2.1260 S   0  0  0  0  0  0  0  0  0  0  0  0
   -2.7475    0.2051    0.7592 C   0  0  0  0  0  0  0  0  0  0  0  0
    3.4129    0.0622    2.2799 N   0  0  0  0  0  0  0  0  0  0  0  0
    3.4786    0.0093    3.6794 C   0  0  0  0  0  0  0  0  0  0  0  0
    2.4889    0.5167    4.4800 C   0  0  0  0  0  0  0  0  0  0  0  0
    4.6363   -0.5166    4.2703 C   0  0  0  0  0  0  0  0  0  0  0  0
    2.6153    0.4871    5.7977 N   0  0  0  0  0  0  0  0  0  0  0  0
    4.7657   -0.5431    5.6343 C   0  0  0  0  0  0  0  0  0  0  0  0
    3.6738   -0.0196    6.3945 C   0  0  0  0  0  0  0  0  0  0  0  0
    3.7366   -0.0712    7.7237 F   0  0  0  0  0  0  0  0  0  0  0  0
   -2.6281    1.5747    0.1762 C   0  0  0  0  0  0  0  0  0  0  0  0
   -2.8741    2.7057    0.9532 C   0  0  0  0  0  0  0  0  0  0  0  0
   -2.3139    1.7715   -1.1512 C   0  0  0  0  0  0  0  0  0  0  0  0
   -2.7279    3.9967    0.4701 C   0  0  0  0  0  0  0  0  0  0  0  0
   -2.1664    3.0544   -1.6328 C   0  0  0  0  0  0  0  0  0  0  0  0
   -2.3182    4.2027   -0.8465 C   0  0  0  0  0  0  0  0  0  0  0  0
   -2.1888    5.4322   -1.4557 O   0  0  0  0  0  0  0  0  0  0  0  0
   -2.3005    6.6141   -0.6798 C   0  0  0  0  0  0  0  0  0  0  0  0
   -1.0340    6.8827    0.1314 C   0  0  0  0  0  0  0  0  0  0  0  0
    0.1840    7.2483   -0.7155 C   0  0  0  0  0  0  0  0  0  0  0  0
  2  1  2  0
  3  2  1  0
  4  1  1  0
  5  4  2  0
  6  5  1  0
  6  3  2  0
  7  2  1  0
  8  7  1  0
  9  6  1  0
 10  9  1  0
 11 10  2  0
 12 10  1  0
 13 11  1  0
 14 12  2  0
 15 14  1  0
 15 13  2  0
 16 15  1  0
 17  8  1  0
 18 17  2  0
 19 17  1  0
 20 18  1  0
 21 19  2  0
 22 21  1  0
 22 20  2  0
 23 22  1  0
 24 23  1  0
 25 24  1  0
 26 25  1  0
M  END
>  <SMILES>  (9) 
CCCOc1ccc(CSc2nccc(Nc3ccc(F)nc3)n2)cc1

>  <scaffold>  (9) 
pyrimidine

$$$$

     RDKit          3D

 31 33  0  0  0  0  0  0  0  0999 V2000
    0.0000   -0.0000    0.0000 N   0  0  0  0  0  0  0  0  0  0  0  0
   -0.0000   -0.0000    1.3317 C   0  0  0  0  0  0  0  0  0  0  0  0
    1.0735    0.0000    2.1198 N   0  0  0  0  0  0  0  0  0  0  0  0
    1.1904    0.0000   -0.6139 C   0  0  0  0  0  0  0  0  0  0  0  0
    2.3690    0.0000    0.1456 C   0  0  0  0  0  0  0  0  0  0  0  0
    2.2357   -0.0000    1.5253 C   0  0  0  0  0  0  0  0  0  0  0  0
    1.1421   -0.0483   -1.9515 N   0  0  0  0  0  0  0  0  0  0  0  0
   -1.2371   -0.0608    1.8994 N   0  0  0  0  0  0  0  0  0  0  0  0
    3.3466    0.0489    2.2993 O   0  0  0  0  0  0  0  0  0  0  0  0
   -1.6410   -0.0277    3.1760 N   0  0  0  0  0  0  0  0  0  0  0  0
   -2.8802   -0.0516    3.4626 C   0  0  0  0  0  0  0  0  0  0  0  0
    3.2781   -0.1519    3.6611 C   0  0  0  0  0  0  0  0  0  0  0  0
    2.4976   -1.1673    4.2319 C   0  0  0  0  0  0  0  0  0  0  0  0
    4.1025    0.6105    4.4739 C   0  0  0  0  0  0  0  0  0  0  0  0
    2.4991   -1.3588    5.5809 C   0  0  0  0  0  0  0  0  0  0  0  0
    4.1043    0.4135    5.8142 C   0  0  0  0  0  0  0  0  0  0  0  0
    3.3258   -0.5782    6.3877 C   0  0  0  0  0  0  0  0  0  0  0  0
   -3.4442   -0.0775    4.7993 C   0  0  0  0  0  0  0  0  0  0  0  0
   -4.8126   -0.0530    5.0646 C   0  0  0  0  0  0  0  0  0  0  0  0
   -2.5417   -0.1971    5.8552 C   0  0  0  0  0  0  0  0  0  0  0  0
   -5.3956   -0.0261    6.3220 C   0  0  0  0  0  0  0  0  0  0  0  0
   -3.1221   -0.1676    7.1137 C   0  0  0  0  0  0  0  0  0  0  0  0
   -4.4825   -0.0839    7.3739 C   0  0  0  0  0  0  0  0  0  0  0  0
   -7.0859    0.0650    6.5860 Cl  0  0  0  0  0  0  0  0  0  0  0  0
    3.3983   -0.7713    7.7664 N   0  0  0  0  0  0  0  0  0  0  0  0
    2.4743   -1.2232    8.6600 C   0  0  0  0  0  0  0  0  0  0  0  0
    2.8386   -1.5856    9.7611 O   0  0  0  0  0  0  0  0  0  0  0  0
    1.0509   -1.1337    8.2470 C   0  0  0  0  0  0  0  0  0  0  0  0
    0.6780    0.3303    8.0193 C   0  0  0  0  0  0  0  0  0  0  0  0
   -0.7653    0.4727    7.5387 C   0  0  0  0  0  0  0  0  0  0  0  0
   -1.1040    1.9540    7.3790 C   0  0  0  0  0  0  0  0  0  0  0  0
  2  1  2  0
  3  2  1  0
  4  1  1  0
  5  4  2  0
  6  5  1  0
  6  3  2  0
  7  4  1  0
  8  2  1  0
  9  6  1  0
 10  8  1  0
 11 10  2  0
 12  9  1  0
 13 12  2  0
 14 12  1  0
 15 13  1  0
 16 14  2  0
 17 16  1  0
 17 15  2  0
 18 11  1  0
 19 18  2  0
 20 18  1  0
 21 19  1  0
 22 20  2  0
 23 22  1  0
 23 21  2  0
 24 21  1  0
 25 17  1  0
 26 25  1  0
 27 26  2  0
 28 26  1  0
 29 28  1  0
 30 29  1  0
 31 30  1  0
M  END
>  <SMILES>  (10) 
CCCCC(=O)Nc1ccc(Oc2cc(N)nc(NN=Cc3cccc(Cl)c3)n2)cc1

>  <scaffold>  (10) 
pyrimidine

$$$$

     RDKit          3D

 22 23  0  0  0  0  0  0  0  0999 V2000
    0.0000    0.0000   -0.0000 N   0  0  0  0  0  0  0  0  0  0  0  0
   -0.0000   -0.0000    1.3704 C   0  0  0  0  0  0  0  0  0  0  0  0
    1.2086    0.0000    1.9824 N   0  0  0  0  0  0  0  0  0  0  0  0
    1.1922   -0.0586   -0.6891 C   0  0  0  0  0  0  0  0  0  0  0  0
    2.4086    0.0012   -0.0610 C   0  0  0  0  0  0  0  0  0  0  0  0
    2.4770    0.0046    1.3719 C   0  0  0  0  0  0  0  0  0  0  0  0
    3.5058    0.0074    2.0314 O   0  0  0  0  0  0  0  0  0  0  0  0
   -1.3836   -0.0000    2.2619 S   0  0  0  0  0  0  0  0  0  0  0  0
    1.1331   -0.1834   -2.0368 N   0  0  0  0  0  0  0  0  0  0  0  0
    4.0048    0.1002   -0.9177 S   0  0  0  0  0  0  0  0  0  0  0  0
   -1.2624    0.0620   -0.7297 C   0  0  0  0  0  0  0  0  0  0  0  0
   -1.7658   -1.3450   -1.0480 C   0  0  0  0  0  0  0  0  0  0  0  0
    4.1585    1.8712   -1.0598 C   0  0  0  0  0  0  0  0  0  0  0  0
    4.7410    2.5584   -0.0167 C   0  0  0  0  0  0  0  0  0  0  0  0
    3.5899    2.4931   -2.1704 C   0  0  0  0  0  0  0  0  0  0  0  0
    4.7939    3.9371   -0.1507 C   0  0  0  0  0  0  0  0  0  0  0  0
    3.6404    3.8567   -2.2971 C   0  0  0  0  0  0  0  0  0  0  0  0
    4.3593    4.6182   -1.2673 C   0  0  0  0  0  0  0  0  0  0  0  0
    4.3428    6.3396   -1.4665 Cl  0  0  0  0  0  0  0  0  0  0  0  0
    2.9966    4.5783   -3.4462 C   0  0  0  0  0  0  0  0  0  0  0  0
    1.5669    4.9841   -3.0919 C   0  0  0  0  0  0  0  0  0  0  0  0
    0.8481    5.6749   -4.2497 C   0  0  0  0  0  0  0  0  0  0  0  0
  2  1  1  0
  3  2  1  0
  4  1  1  0
  5  4  2  0
  6  5  1  0
  6  3  1  0
  7  6  2  0
  8  2  2  0
  9  4  1  0
 10  5  1  0
 11  1  1  0
 12 11  1  0
 13 10  1  0
 14 13  2  0
 15 13  1  0
 16 14  1  0
 17 15  2  0
 18 17  1  0
 18 16  2  0
 19 18  1  0
 20 17  1  0
 21 20  1  0
 22 21  1  0
M  END
>  <SMILES>  (11) 
CCCc1cc(Sc2c(N)n(CC)c(=S)[nH]c2=O)ccc1Cl

>  <scaffold>  (11) 
pyrimidine

$$$$

     RDKit          3D

 27 29  0  0  0  0  0  0  0  0999 V2000
    0.0000    0.0000   -0.0000 N   0  0  0  0  0  0  0  0  0  0  0  0
   -0.0000    0.0000    1.3241 C   0  0  0  0  0  0  0  0  0  0  0  0
    1.0215   -0.0000    2.1546 N   0  0  0  0  0  0  0  0  0  0  0  0
    1.1836    0.0000   -0.6104 C   0  0  0  0  0  0  0  0  0  0  0  0
    2.3690    0.0000    0.1535 C   0  0  0  0  0  0  0  0  0  0  0  0
    2.2326    0.0000    1.5652 C   0  0  0  0  0  0  0  0  0  0  0  0
    3.7208    0.0536   -0.0082 N   0  0  0  0  0  0  0  0  0  0  0  0
    3.4866    0.0534    2.0541 N   0  0  0  0  0  0  0  0  0  0  0  0
    4.3694    0.0682    1.0860 N   0  0  0  0  0  0  0  0  0  0  0  0
    1.1355    0.0480   -1.9403 N   0  0  0  0  0  0  0  0  0  0  0  0
    3.9325    0.0205    3.4259 C   0  0  2  0  0  0  0  0  0  0  0  0
    4.6268    1.3342    3.7817 C   0  0  0  0  0  0  0  0  0  0  0  0
    4.8471   -1.1629    3.6369 C   0  0  0  0  0  0  0  0  0  0  0  0
    6.0485   -1.2730    2.9383 C   0  0  0  0  0  0  0  0  0  0  0  0
    4.5511   -2.1540    4.5598 C   0  0  0  0  0  0  0  0  0  0  0  0
    6.8222   -2.3883    3.1262 C   0  0  0  0  0  0  0  0  0  0  0  0
    5.3290   -3.2755    4.7515 C   0  0  0  0  0  0  0  0  0  0  0  0
    6.4825   -3.4351    3.9820 C   0  0  0  0  0  0  0  0  0  0  0  0
    7.3545   -4.4622    4.1239 O   0  0  0  0  0  0  0  0  0  0  0  0
    7.0779   -5.6576    4.8352 C   0  0  0  0  0  0  0  0  0  0  0  0
    6.1455   -6.5605    4.0291 C   0  0  0  0  0  0  0  0  0  0  0  0
    6.7848   -7.0319    2.7239 C   0  0  0  0  0  0  0  0  0  0  0  0
    5.8720   -7.8946    1.8539 C   0  0  0  0  0  0  0  0  0  0  0  0
    6.5422   -8.2959    0.5307 C   0  0  0  0  0  0  0  0  0  0  0  0
    5.6498   -9.1149   -0.4005 C   0  0  0  0  0  0  0  0  0  0  0  0
    6.3432   -9.4411   -1.7224 C   0  0  0  0  0  0  0  0  0  0  0  0
    5.4722  -10.2132   -2.7121 C   0  0  0  0  0  0  0  0  0  0  0  0
  2  1  2  0
  3  2  1  0
  4  1  1  0
  5  4  2  0
  6  5  1  0
  6  3  2  0
  7  5  1  0
  8  6  1  0
  9  8  1  0
  9  7  2  0
 10  4  1  0
 11  8  1  0
 11 12  1  6
 13 11  1  0
 14 13  2  0
 15 13  1  0
 16 14  1  0
 17 15  2  0
 18 17  1  0
 18 16  2  0
 19 18  1  0
 20 19  1  0
 21 20  1  0
 22 21  1  0
 23 22  1  0
 24 23  1  0
 25 24  1  0
 26 25  1  0
 27 26  1  0
M  END
>  <SMILES>  (12) 
CCCCCCCCOc1ccc(C(C)n2nnc3c(N)ncnc32)cc1

>  <scaffold>  (12) 
pyrimidine

$$$$

     RDKit          3D

 23 23  0  0  0  0  0  0  0  0999 V2000
    0.0000   -0.0000   -0.0000 N   0  0  0  0  0  0  0  0  0  0  0  0
    0.0000    0.0000    1.3782 C   0  0  0  0  0  0  0  0  0  0  0  0
    1.2494   -0.0000    1.9601 N   0  0  0  0  0  0  0  0  0  0  0  0
    1.1453   -0.0000   -0.7380 C   0  0  0  0  0  0  0  0  0  0  0  0
    2.3426    0.0000   -0.1207 C   0  0  0  0  0  0  0  0  0  0  0  0
    2.4829   -0.0000    1.3320 C   0  0  0  0  0  0  0  0  0  0  0  0
    3.5048   -0.0474    1.9878 O   0  0  0  0  0  0  0  0  0  0  0  0
   -1.0214   -0.0000    2.0364 O   0  0  0  0  0  0  0  0  0  0  0  0
    3.6327    0.0542   -0.8876 C   0  0  0  0  0  0  0  0  0  0  0  0
   -1.2897    0.0000   -0.6651 C   0  0  0  0  0  0  0  0  0  0  0  0
   -1.6397    1.3973   -1.1744 C   0  0  0  0  0  0  0  0  0  0  0  0
   -1.7126    2.4408   -0.0607 C   0  0  0  0  0  0  0  0  0  0  0  0
   -2.2007    3.7736   -0.6023 C   0  0  0  0  0  0  0  0  0  0  0  0
   -2.2394    4.8679    0.4632 C   0  0  0  0  0  0  0  0  0  0  0  0
   -2.6811    6.1905   -0.1398 C   0  0  0  0  0  0  0  0  0  0  0  0
   -1.9091    7.0368   -0.5453 O   0  0  0  0  0  0  0  0  0  0  0  0
   -4.0001    6.2921   -0.2921 N   0  0  0  0  0  0  0  0  0  0  0  0
   -4.6169    7.4547   -0.9035 C   0  0  1  0  0  0  0  0  0  0  0  0
   -5.2732    6.9965   -2.2049 C   0  0  0  0  0  0  0  0  0  0  0  0
   -5.5794    8.1164    0.0815 C   0  0  0  0  0  0  0  0  0  0  0  0
   -4.8649    8.6672    1.3146 C   0  0  0  0  0  0  0  0  0  0  0  0
   -5.8614    9.3647    2.2391 C   0  0  0  0  0  0  0  0  0  0  0  0
   -5.0955    9.9395    3.4184 C   0  0  0  0  0  0  0  0  0  0  0  0
  2  1  1  0
  3  2  1  0
  4  1  1  0
  5  4  2  0
  6  5  1  0
  6  3  1  0
  7  6  2  0
  8  2  2  0
  9  5  1  0
 10  1  1  0
 11 10  1  0
 12 11  1  0
 13 12  1  0
 14 13  1  0
 15 14  1  0
 16 15  2  0
 17 15  1  0
 18 17  1  0
 18 19  1  6
 20 18  1  0
 21 20  1  0
 22 21  1  0
 23 22  1  0
M  END
>  <SMILES>  (13) 
CCCCC(C)NC(=O)CCCCCn1cc(C)c(=O)[nH]c1=O

>  <scaffold>  (13) 
pyrimidine

$$$$

     RDKit          3D

 15 16  0  0  0  0  0  0  0  0999 V2000
   -0.0000    0.0000    0.0000 N   0  0  0  0  0  0  0  0  0  0  0  0
   -0.0000    0.0000    1.3241 C   0  0  0  0  0  0  0  0  0  0  0  0
    1.0423    0.0000    2.1160 N   0  0  0  0  0  0  0  0  0  0  0  0
    1.1768   -0.0000   -0.6069 C   0  0  0  0  0  0  0  0  0  0  0  0
    2.4036    0.0603    0.1023 C   0  0  0  0  0  0  0  0  0  0  0  0
    2.1975    0.0619    1.4973 C   0  0  0  0  0  0  0  0  0  0  0  0
    3.6204    0.1112   -0.4734 N   0  0  0  0  0  0  0  0  0  0  0  0
    3.3521    0.0698    2.2206 N   0  0  0  0  0  0  0  0  0  0  0  0
    1.2397   -0.0629   -2.3475 S   0  0  0  0  0  0  0  0  0  0  0  0
   -0.4763   -0.0455   -2.7937 C   0  0  0  0  0  0  0  0  0  0  0  0
   -1.3511    0.9546   -2.3988 C   0  0  0  0  0  0  0  0  0  0  0  0
   -0.9505   -1.0889   -3.5875 C   0  0  0  0  0  0  0  0  0  0  0  0
   -2.6737    0.9514   -2.8137 C   0  0  0  0  0  0  0  0  0  0  0  0
   -2.2655   -1.0915   -4.0001 C   0  0  0  0  0  0  0  0  0  0  0  0
   -3.1014   -0.0403   -3.6827 C   0  0  0  0  0  0  0  0  0  0  0  0
  2  1  2  0
  3  2  1  0
  4  1  1  0
  5  4  2  0
  6  5  1  0
  6  3  2  0
  7  5  1  0
  8  6  1  0
  9  4  1  0
 10  9  1  0
 11 10  2  0
 12 10  1  0
 13 11  1  0
 14 12  2  0
 15 14  1  0
 15 13  2  0
M  END
>  <SMILES>  (14) 
Nc1ncnc(Sc2ccccc2)c1N

>  <scaffold>  (14) 
pyrimidine

$$$$

     RDKit          3D

 24 26  0  0  0  0  0  0  0  0999 V2000
   -0.0000   -0.0000   -0.0000 C   0  0  0  0  0  0  0  0  0  0  0  0
   -0.0000    0.0000    1.3862 C   0  0  0  0  0  0  0  0  0  0  0  0
    1.2468    0.0000    1.9920 C   0  0  0  0  0  0  0  0  0  0  0  0
    1.1067   -0.0000   -0.7131 N   0  0  0  0  0  0  0  0  0  0  0  0
    2.2325   -0.0000    0.0124 C   0  0  0  0  0  0  0  0  0  0  0  0
    2.3613   -0.0000    1.3455 N   0  0  0  0  0  0  0  0  0  0  0  0
    3.3370    0.0486   -0.7572 N   0  0  0  0  0  0  0  0  0  0  0  0
    4.5174    0.1054   -0.1432 N   0  0  0  0  0  0  0  0  0  0  0  0
    5.5366    0.1962   -0.9112 C   0  0  0  0  0  0  0  0  0  0  0  0
    6.8410    0.2088   -0.2947 C   0  0  0  0  0  0  0  0  0  0  0  0
    7.9343    0.2595   -1.1839 C   0  0  0  0  0  0  0  0  0  0  0  0
    7.0779    0.1300    1.0688 C   0  0  0  0  0  0  0  0  0  0  0  0
    9.2011    0.2236   -0.6422 C   0  0  0  0  0  0  0  0  0  0  0  0
    8.3455    0.0961    1.6088 C   0  0  0  0  0  0  0  0  0  0  0  0
    9.4263    0.1991    0.7579 C   0  0  0  0  0  0  0  0  0  0  0  0
   10.3264    0.2131   -1.3964 O   0  0  0  0  0  0  0  0  0  0  0  0
   10.2892    0.1758   -2.7896 C   0  0  0  0  0  0  0  0  0  0  0  0
   10.7238    0.2174    1.1735 O   0  0  0  0  0  0  0  0  0  0  0  0
   11.1001   -0.1889    2.4442 C   0  0  0  0  0  0  0  0  0  0  0  0
   10.5638   -1.3238    3.0324 C   0  0  0  0  0  0  0  0  0  0  0  0
   12.1133    0.5081    3.1008 C   0  0  0  0  0  0  0  0  0  0  0  0
   11.0074   -1.7181    4.2850 C   0  0  0  0  0  0  0  0  0  0  0  0
   12.5571    0.1082    4.3516 C   0  0  0  0  0  0  0  0  0  0  0  0
   12.0208   -1.0199    4.9229 C   0  0  0  0  0  0  0  0  0  0  0  0
  2  1  2  0
  3  2  1  0
  4  1  1  0
  5  4  2  0
  6  5  1  0
  6  3  2  0
  7  5  1  0
  8  7  2  0
  9  8  1  0
 10  9  2  0
 11 10  1  0
 12 10  1  0
 13 11  2  0
 14 12  2  0
 15 14  1  0
 15 13  1  0
 16 13  1  0
 17 16  1  0
 18 15  2  0
 19 18  1  0
 20 19  2  0
 21 19  1  0
 22 20  1  0
 23 21  2  0
 24 23  1  0
 24 22  2  0
M  CHG  2  18   1  21  -1
M  END
>  <SMILES>  (15) 
COC1=CC(=CN=Nc2ncccn2)C=CC1=[O+]c1[c-]cccc1

>  <scaffold>  (15) 
pyrimidine

$$$$

     RDKit          3D

 17 18  0  0  0  0  0  0  0  0999 V2000
    0.0000   -0.0000   -0.0000 N   0  0  0  0  0  0  0  0  0  0  0  0
   -0.0000   -0.0000    1.3317 C   0  0  0  0  0  0  0  0  0  0  0  0
    1.0552   -0.0000    2.1063 N   0  0  0  0  0  0  0  0  0  0  0  0
    1.1701    0.0000   -0.6034 C   0  0  0  0  0  0  0  0  0  0  0  0
    2.3829    0.0596    0.0976 C   0  0  0  0  0  0  0  0  0  0  0  0
    2.2466    0.1194    1.4999 C   0  0  0  0  0  0  0  0  0  0  0  0
    3.6567    0.1130   -0.5050 C   0  0  0  0  0  0  0  0  0  0  0  0
    4.6706    0.1551   -1.0265 N   0  0  0  0  0  0  0  0  0  0  0  0
    3.3309    0.1272    2.2731 O   0  0  0  0  0  0  0  0  0  0  0  0
   -1.5491   -0.0000    2.1305 S   0  0  0  0  0  0  0  0  0  0  0  0
    3.3287    0.2362    3.6391 C   0  0  0  0  0  0  0  0  0  0  0  0
    4.4382   -0.2446    4.1787 N   0  0  0  0  0  0  0  0  0  0  0  0
    2.3101    0.8568    4.3609 C   0  0  0  0  0  0  0  0  0  0  0  0
    4.5701   -0.1467    5.4850 C   0  0  0  0  0  0  0  0  0  0  0  0
    2.4483    0.9508    5.7369 C   0  0  0  0  0  0  0  0  0  0  0  0
    3.6295    0.4263    6.3526 C   0  0  0  0  0  0  0  0  0  0  0  0
   -1.1035   -0.3419    3.8998 C   0  0  0  0  0  0  0  0  0  0  0  0
  2  1  2  0
  3  2  1  0
  4  1  1  0
  5  4  2  0
  6  5  1  0
  6  3  2  0
  7  5  1  0
  8  7  3  0
  9  6  1  0
 10  2  1  0
 11  9  1  0
 12 11  2  0
 13 11  1  0
 14 12  1  0
 15 13  2  0
 16 15  1  0
 16 14  2  0
 17 10  1  0
M  END
>  <SMILES>  (16) 
CSc1ncc(C#N)c(Oc2ccccn2)n1

>  <scaffold>  (16) 
pyrimidine

$$$$

     RDKit          3D

 37 38  0  0  0  0  0  0  0  0999 V2000
    0.0000   -0.0000   -0.0000 C   0  0  0  0  0  0  0  0  0  0  0  0
    0.0000   -0.0000    1.3862 C   0  0  0  0  0  0  0  0  0  0  0  0
    1.2332    0.0000    2.0364 C   0  0  0  0  0  0  0  0  0  0  0  0
    1.1194    0.0000   -0.7213 N   0  0  0  0  0  0  0  0  0  0  0  0
    2.2388   -0.0000   -0.0000 C   0  0  0  0  0  0  0  0  0  0  0  0
    2.3669   -0.0000    1.3255 N   0  0  0  0  0  0  0  0  0  0  0  0
    1.2812    0.0480    3.3663 O   0  0  0  0  0  0  0  0  0  0  0  0
    3.3122   -0.0472   -0.7478 O   0  0  0  0  0  0  0  0  0  0  0  0
    2.5517    0.0967    3.9764 C   0  0  0  0  0  0  0  0  0  0  0  0
   -1.1323    0.0000   -0.7296 O   0  0  0  0  0  0  0  0  0  0  0  0
    4.5693   -0.1077   -0.0940 C   0  0  0  0  0  0  0  0  0  0  0  0
   -2.3795   -0.3783   -0.3322 C   0  0  0  0  0  0  0  0  0  0  0  0
   -2.6061   -0.8273    0.7587 O   0  0  0  0  0  0  0  0  0  0  0  0
   -3.3305   -0.2073   -1.3040 N   0  0  0  0  0  0  0  0  0  0  0  0
   -4.6889   -0.5208   -1.3097 C   0  0  0  0  0  0  0  0  0  0  0  0
   -5.3248   -1.1092   -0.2175 C   0  0  0  0  0  0  0  0  0  0  0  0
   -5.4334   -0.2886   -2.4652 C   0  0  0  0  0  0  0  0  0  0  0  0
   -6.6882   -1.3573   -0.2514 C   0  0  2  0  0  0  0  0  0  0  0  0
   -6.7810   -0.5351   -2.5016 C   0  0  0  0  0  0  0  0  0  0  0  0
   -7.4329   -0.9616   -1.3615 C   0  0  1  0  0  0  0  0  0  0  0  0
   -7.2477   -1.9675    0.8014 F   0  0  0  0  0  0  0  0  0  0  0  0
   -8.7964   -1.2338   -1.4626 N   0  0  0  0  0  0  0  0  0  0  0  0
   -9.8145   -1.2101   -0.5574 C   0  0  0  0  0  0  0  0  0  0  0  0
  -10.9216   -1.5478   -0.9273 O   0  0  0  0  0  0  0  0  0  0  0  0
   -9.5021   -0.7644    0.8149 C   0  0  0  0  0  0  0  0  0  0  0  0
  -10.3621   -1.0385    1.7940 C   0  0  0  0  0  0  0  0  0  0  0  0
  -10.1208   -0.5688    3.1726 C   0  0  0  0  0  0  0  0  0  0  0  0
  -11.0697   -0.5782    3.9538 O   0  0  0  0  0  0  0  0  0  0  0  0
   -8.8898   -0.2279    3.4591 O   0  0  0  0  0  0  0  0  0  0  0  0
   -8.5151    0.1917    4.7788 C   0  0  0  0  0  0  0  0  0  0  0  0
   -8.4075   -0.9978    5.7316 C   0  0  0  0  0  0  0  0  0  0  0  0
   -7.3730   -2.0279    5.2810 C   0  0  0  0  0  0  0  0  0  0  0  0
   -7.2655   -3.1671    6.2934 C   0  0  0  0  0  0  0  0  0  0  0  0
   -6.2761   -4.2596    5.8591 C   0  0  0  0  0  0  0  0  0  0  0  0
   -6.2464   -5.3988    6.8768 C   0  0  0  0  0  0  0  0  0  0  0  0
   -5.3028   -6.4679    6.3786 C   0  0  0  0  0  0  0  0  0  0  0  0
   -5.2791   -7.6439    7.3262 C   0  0  0  0  0  0  0  0  0  0  0  0
  2  1  2  0
  3  2  1  0
  4  1  1  0
  5  4  2  0
  6  5  1  0
  6  3  2  0
  7  3  1  0
  8  5  1  0
  9  7  1  0
 10  1  1  0
 11  8  1  0
 12 10  1  0
 13 12  2  0
 14 12  1  0
 15 14  1  0
 16 15  2  0
 17 15  1  0
 18 16  1  0
 19 17  2  0
 20 19  1  0
 20 18  1  0
 18 21  1  1
 20 22  1  6
 23 22  1  0
 24 23  2  0
 25 23  1  0
 26 25  2  0
 27 26  1  0
 28 27  2  0
 29 27  1  0
 30 29  1  0
 31 30  1  0
 32 31  1  0
 33 32  1  0
 34 33  1  0
 35 34  1  0
 36 35  1  0
 37 36  1  0
M  END
>  <SMILES>  (17) 
CCCCCCCCOC(=O)C=CC(=O)NC1C=CC(NC(=O)Oc2cc(OC)nc(OC)n2)=CC1F

>  <scaffold>  (17) 
pyrimidine

$$$$

     RDKit          3D

 24 26  0  0  0  0  0  0  0  0999 V2000
   -0.0000    0.0000   -0.0000 C   0  0  0  0  0  0  0  0  0  0  0  0
   -0.0000   -0.0000    1.3470 C   0  0  0  0  0  0  0  0  0  0  0  0
    1.2293    0.0000    2.1024 C   0  0  0  0  0  0  0  0  0  0  0  0
    1.1388    0.0000   -0.7338 N   0  0  0  0  0  0  0  0  0  0  0  0
    2.3708   -0.0000   -0.0985 C   0  0  0  0  0  0  0  0  0  0  0  0
    2.3587   -0.2260    1.2610 N   0  0  0  0  0  0  0  0  0  0  0  0
    3.3430    0.1771   -0.7815 O   0  0  0  0  0  0  0  0  0  0  0  0
    1.2770    0.1781    3.2965 O   0  0  0  0  0  0  0  0  0  0  0  0
    3.6039   -0.4431    1.9221 C   0  0  0  0  0  0  0  0  0  0  0  0
    4.4759   -1.4134    1.4775 C   0  0  0  0  0  0  0  0  0  0  0  0
    3.9260    0.3011    3.0366 C   0  0  0  0  0  0  0  0  0  0  0  0
    5.6516   -1.6210    2.1817 C   0  0  0  0  0  0  0  0  0  0  0  0
    5.1014    0.0914    3.7408 C   0  0  0  0  0  0  0  0  0  0  0  0
    5.9324   -0.9139    3.3500 C   0  0  0  0  0  0  0  0  0  0  0  0
    1.1912    0.0523   -2.1831 C   0  0  0  0  0  0  0  0  0  0  0  0
    7.0524   -1.1803    4.0193 F   0  0  0  0  0  0  0  0  0  0  0  0
    5.3309    0.9151    4.7816 O   0  0  0  0  0  0  0  0  0  0  0  0
    6.2396    0.5872    5.7978 C   0  0  0  0  0  0  0  0  0  0  0  0
    7.1870    1.5220    6.1852 C   0  0  0  0  0  0  0  0  0  0  0  0
    6.1917   -0.6249    6.4686 C   0  0  0  0  0  0  0  0  0  0  0  0
    8.0684    1.2629    7.2126 C   0  0  0  0  0  0  0  0  0  0  0  0
    7.0806   -0.8844    7.5000 C   0  0  0  0  0  0  0  0  0  0  0  0
    7.9563    0.0641    7.8994 C   0  0  0  0  0  0  0  0  0  0  0  0
    8.8793   -0.1695    8.8742 O   0  0  0  0  0  0  0  0  0  0  0  0
  2  1  2  0
  3  2  1  0
  4  1  1  0
  5  4  1  0
  6  5  1  0
  6  3  1  0
  7  5  2  0
  8  3  2  0
  9  6  1  0
 10  9  2  0
 11  9  1  0
 12 10  1  0
 13 11  2  0
 14 13  1  0
 14 12  2  0
 15  4  1  0
 16 14  1  0
 17 13  1  0
 18 17  1  0
 19 18  2  0
 20 18  1  0
 21 19  1  0
 22 20  2  0
 23 22  1  0
 23 21  2  0
 24 23  1  0
M  END
>  <SMILES>  (18) 
Cn1ccc(=O)n(-c2ccc(F)c(Oc3ccc(O)cc3)c2)c1=O

>  <scaffold>  (18) 
pyrimidine

$$$$

     RDKit          3D

 21 22  0  0  0  0  0  0  0  0999 V2000
    0.0000    0.0000    0.0000 C   0  0  0  0  0  0  0  0  0  0  0  0
    0.0000   -0.0000    1.4264 C   0  0  0  0  0  0  0  0  0  0  0  0
    1.2710   -0.0000    2.0184 C   0  0  0  0  0  0  0  0  0  0  0  0
    1.1836   -0.0000   -0.6104 N   0  0  0  0  0  0  0  0  0  0  0  0
    2.2966   -0.0000    0.1069 C   0  0  0  0  0  0  0  0  0  0  0  0
    2.4172    0.0000    1.4179 N   0  0  0  0  0  0  0  0  0  0  0  0
   -1.1375    0.0559    2.2443 C   0  0  0  0  0  0  0  0  0  0  0  0
   -2.0373    0.1001    2.9656 N   0  0  0  0  0  0  0  0  0  0  0  0
   -1.1194   -0.0000   -0.7213 N   0  0  0  0  0  0  0  0  0  0  0  0
    1.4352   -0.0680    3.7522 S   0  0  0  0  0  0  0  0  0  0  0  0
    3.2353    0.0350    3.8036 C   0  0  0  0  0  0  0  0  0  0  0  0
    3.9344    1.1734    3.4337 C   0  0  0  0  0  0  0  0  0  0  0  0
    3.8704   -1.0362    4.3942 C   0  0  0  0  0  0  0  0  0  0  0  0
    5.3079    1.2219    3.5364 C   0  0  0  0  0  0  0  0  0  0  0  0
    5.2512   -0.9785    4.5010 C   0  0  0  0  0  0  0  0  0  0  0  0
    5.9881    0.1300    4.0737 C   0  0  0  0  0  0  0  0  0  0  0  0
    7.3266    0.3154    4.1714 O   0  0  0  0  0  0  0  0  0  0  0  0
    8.0516   -0.7433    4.7563 C   0  0  0  0  0  0  0  0  0  0  0  0
    9.4937   -0.2397    4.7892 C   0  0  0  0  0  0  0  0  0  0  0  0
   10.4059   -1.3277    5.3536 C   0  0  0  0  0  0  0  0  0  0  0  0
   11.8378   -0.7962    5.3144 C   0  0  0  0  0  0  0  0  0  0  0  0
  2  1  2  0
  3  2  1  0
  4  1  1  0
  5  4  2  0
  6  5  1  0
  6  3  2  0
  7  2  1  0
  8  7  3  0
  9  1  1  0
 10  3  1  0
 11 10  1  0
 12 11  2  0
 13 11  1  0
 14 12  1  0
 15 13  2  0
 16 15  1  0
 16 14  2  0
 17 16  1  0
 18 17  1  0
 19 18  1  0
 20 19  1  0
 21 20  1  0
M  END
>  <SMILES>  (19) 
CCCCOc1ccc(Sc2ncnc(N)c2C#N)cc1

>  <scaffold>  (19) 
pyrimidine

$$$$

     RDKit          3D

 21 23  0  0  0  0  0  0  0  0999 V2000
    0.0000    0.0000    0.0000 N   0  0  0  0  0  0  0  0  0  0  0  0
    0.0000   -0.0000    1.3317 C   0  0  0  0  0  0  0  0  0  0  0  0
    1.0351    0.0000    2.1453 N   0  0  0  0  0  0  0  0  0  0  0  0
    1.1836   -0.0000   -0.6104 C   0  0  0  0  0  0  0  0  0  0  0  0
    2.3690   -0.0000    0.1535 C   0  0  0  0  0  0  0  0  0  0  0  0
    2.2341   -0.0000    1.5491 C   0  0  0  0  0  0  0  0  0  0  0  0
    3.9989    0.0681   -0.4012 S   0  0  0  0  0  0  0  0  0  0  0  0
    3.5331    0.0564    2.1359 C   0  0  0  0  0  0  0  0  0  0  0  0
    4.5476    0.0789    1.2426 C   0  0  0  0  0  0  0  0  0  0  0  0
    1.2316    0.0480   -1.9403 O   0  0  0  0  0  0  0  0  0  0  0  0
    3.6744    0.0145    3.4671 F   0  0  0  0  0  0  0  0  0  0  0  0
    0.0543    0.1577   -2.6938 C   0  0  0  0  0  0  0  0  0  0  0  0
   -0.6282    1.3545   -2.7327 C   0  0  0  0  0  0  0  0  0  0  0  0
   -0.4037   -0.9221   -3.4473 C   0  0  0  0  0  0  0  0  0  0  0  0
   -1.7660    1.4294   -3.5349 C   0  0  0  0  0  0  0  0  0  0  0  0
   -1.5276   -0.8453   -4.2415 C   0  0  0  0  0  0  0  0  0  0  0  0
   -2.1826    0.3680   -4.3231 C   0  0  0  0  0  0  0  0  0  0  0  0
   -3.2982    0.3022   -5.1027 O   0  0  0  0  0  0  0  0  0  0  0  0
   -2.1788   -2.1696   -5.1500 Cl  0  0  0  0  0  0  0  0  0  0  0  0
   -4.1081    1.4565   -5.0924 C   0  0  0  0  0  0  0  0  0  0  0  0
   -4.8744    1.7058   -3.7943 C   0  0  0  0  0  0  0  0  0  0  0  0
  2  1  2  0
  3  2  1  0
  4  1  1  0
  5  4  2  0
  6  5  1  0
  6  3  2  0
  7  5  1  0
  8  6  1  0
  9  8  2  0
  9  7  1  0
 10  4  1  0
 11  8  1  0
 12 10  1  0
 13 12  2  0
 14 12  1  0
 15 13  1  0
 16 14  2  0
 17 16  1  0
 17 15  2  0
 18 17  1  0
 19 16  1  0
 20 18  1  0
 21 20  1  0
M  END
>  <SMILES>  (20) 
CCOc1ccc(Oc2ncnc3c(F)csc23)cc1Cl

>  <scaffold>  (20) 
pyrimidine

$$$$

     RDKit          3D

 16 17  0  0  0  0  0  0  0  0999 V2000
    0.0000   -0.0000    0.0000 N   0  0  0  0  0  0  0  0  0  0  0  0
    0.0000    0.0000    1.3241 C   0  0  0  0  0  0  0  0  0  0  0  0
    1.0613    0.0000    2.1032 N   0  0  0  0  0  0  0  0  0  0  0  0
    1.1768   -0.0000   -0.6069 C   0  0  0  0  0  0  0  0  0  0  0  0
    2.3554   -0.0000    0.1526 C   0  0  0  0  0  0  0  0  0  0  0  0
    2.2229   -0.0000    1.5245 C   0  0  0  0  0  0  0  0  0  0  0  0
    1.2393   -0.0625   -2.3376 S   0  0  0  0  0  0  0  0  0  0  0  0
   -0.5164   -0.0447   -2.7941 C   0  0  0  0  0  0  0  0  0  0  0  0
    3.3176   -0.0544    2.3860 N   0  0  0  0  0  0  0  0  0  0  0  0
    3.3411    0.0857    3.7412 C   0  0  0  0  0  0  0  0  0  0  0  0
    4.5491   -0.2258    1.8883 N   0  0  0  0  0  0  0  0  0  0  0  0
    4.6164   -0.0933    4.1618 C   0  0  0  0  0  0  0  0  0  0  0  0
    5.2754   -0.2760    2.9582 C   0  0  0  0  0  0  0  0  0  0  0  0
    5.1777   -0.0068    5.3918 O   0  0  0  0  0  0  0  0  0  0  0  0
    4.3417    0.0029    6.4677 C   0  0  0  0  0  0  0  0  0  0  0  0
    3.1395   -0.1656    6.4147 O   0  0  0  0  0  0  0  0  0  0  0  0
  2  1  2  0
  3  2  1  0
  4  1  1  0
  5  4  2  0
  6  5  1  0
  6  3  2  0
  7  4  1  0
  8  7  1  0
  9  6  1  0
 10  9  1  0
 11  9  1  0
 12 10  2  0
 13 12  1  0
 13 11  2  0
 14 12  1  0
 15 14  1  0
 16 15  2  0
M  END
>  <SMILES>  (21) 
CSc1cc(-n2cc(OC=O)cn2)ncn1

>  <scaffold>  (21) 
pyrimidine

$$$$

     RDKit          3D

 24 26  0  0  0  0  0  0  0  0999 V2000
    0.0000    0.0000   -0.0000 N   0  0  0  0  0  0  0  0  0  0  0  0
    0.0000    0.0000    1.3470 C   0  0  0  0  0  0  0  0  0  0  0  0
    1.0678    0.0000    2.1042 N   0  0  0  0  0  0  0  0  0  0  0  0
    1.1634   -0.0000   -0.6000 C   0  0  0  0  0  0  0  0  0  0  0  0
    2.4312    0.0000    0.0538 C   0  0  0  0  0  0  0  0  0  0  0  0
    2.2948    0.0000    1.4655 C   0  0  0  0  0  0  0  0  0  0  0  0
    3.6917   -0.0503   -0.5396 C   0  0  0  0  0  0  0  0  0  0  0  0
    3.4944   -0.0556    2.2353 C   0  0  0  0  0  0  0  0  0  0  0  0
    4.8698   -0.0989    0.2191 C   0  0  0  0  0  0  0  0  0  0  0  0
    4.7113   -0.1061    1.6071 C   0  0  0  0  0  0  0  0  0  0  0  0
   -1.2135    0.0000    1.8379 O   0  0  0  0  0  0  0  0  0  0  0  0
    6.0253   -0.1974   -0.4662 O   0  0  0  0  0  0  0  0  0  0  0  0
    3.2699    0.0092    3.9424 Cl  0  0  0  0  0  0  0  0  0  0  0  0
   -1.4190   -0.0551    3.2157 C   0  0  0  0  0  0  0  0  0  0  0  0
   -0.7118   -0.8983    4.0453 C   0  0  0  0  0  0  0  0  0  0  0  0
   -2.4237    0.7434    3.7184 C   0  0  0  0  0  0  0  0  0  0  0  0
   -0.9874   -0.9537    5.4108 C   0  0  0  0  0  0  0  0  0  0  0  0
   -2.6929    0.6858    5.0528 C   0  0  0  0  0  0  0  0  0  0  0  0
   -2.0198   -0.1943    5.9179 C   0  0  0  0  0  0  0  0  0  0  0  0
    7.3120   -0.3154    0.1186 C   0  0  0  0  0  0  0  0  0  0  0  0
    7.5204   -1.7240    0.6725 C   0  0  0  0  0  0  0  0  0  0  0  0
   -2.3190   -0.1777    7.3721 C   0  0  0  0  0  0  0  0  0  0  0  0
   -3.3671    0.2159    7.8075 O   0  0  0  0  0  0  0  0  0  0  0  0
   -1.2856   -0.5760    8.1117 O   0  0  0  0  0  0  0  0  0  0  0  0
  2  1  2  0
  3  2  1  0
  4  1  1  0
  5  4  2  0
  6  5  1  0
  6  3  2  0
  7  5  1  0
  8  6  1  0
  9  7  2  0
 10  9  1  0
 10  8  2  0
 11  2  1  0
 12  9  1  0
 13  8  1  0
 14 11  1  0
 15 14  2  0
 16 14  1  0
 17 15  1  0
 18 16  2  0
 19 18  1  0
 19 17  2  0
 20 12  1  0
 21 20  1  0
 22 19  1  0
 23 22  2  0
 24 22  1  0
M  END
>  <SMILES>  (22) 
CCOc1cc(Cl)c2nc(Oc3ccc(C(=O)O)cc3)ncc2c1

>  <scaffold>  (22) 
pyrimidine

$$$$

     RDKit          3D

 29 32  0  0  0  0  0  0  0  0999 V2000
   -0.0000   -0.0000   -0.0000 C   0  0  0  0  0  0  0  0  0  0  0  0
   -0.0000    0.0000    1.4102 C   0  0  0  0  0  0  0  0  0  0  0  0
    1.2756   -0.0000    2.0300 C   0  0  0  0  0  0  0  0  0  0  0  0
    1.1836   -0.0000   -0.6104 N   0  0  0  0  0  0  0  0  0  0  0  0
    2.2966   -0.0000    0.1069 C   0  0  0  0  0  0  0  0  0  0  0  0
    2.4165    0.0000    1.4104 N   0  0  0  0  0  0  0  0  0  0  0  0
   -0.9342    0.0525    2.4545 C   0  0  0  0  0  0  0  0  0  0  0  0
   -0.2921    0.0669    3.5865 N   0  0  0  0  0  0  0  0  0  0  0  0
    1.0261   -0.0236    3.3677 N   0  0  0  0  0  0  0  0  0  0  0  0
   -1.1323    0.0000   -0.7296 N   0  0  0  0  0  0  0  0  0  0  0  0
    2.0140    0.0207    4.3844 C   0  0  0  0  0  0  0  0  0  0  0  0
    1.9947    1.1204    5.2280 C   0  0  0  0  0  0  0  0  0  0  0  0
    3.0084   -0.9425    4.4540 C   0  0  0  0  0  0  0  0  0  0  0  0
    2.9770    1.2322    6.2110 C   0  0  0  0  0  0  0  0  0  0  0  0
    3.9642   -0.8319    5.4186 C   0  0  0  0  0  0  0  0  0  0  0  0
    3.9285    0.2391    6.3006 C   0  0  0  0  0  0  0  0  0  0  0  0
    4.9328    0.1465    7.2283 O   0  0  0  0  0  0  0  0  0  0  0  0
    5.2350    1.2499    8.0667 C   0  0  0  0  0  0  0  0  0  0  0  0
    5.9413    2.3809    7.3209 C   0  0  0  0  0  0  0  0  0  0  0  0
    6.4150    3.8030    8.3613 S   0  0  0  0  0  0  0  0  0  0  0  0
    5.1385    5.0319    7.9260 C   0  0  0  0  0  0  0  0  0  0  0  0
    3.7305    4.6990    8.3598 C   0  0  0  0  0  0  0  0  0  0  0  0
    2.6585    4.8916    7.4896 C   0  0  0  0  0  0  0  0  0  0  0  0
    3.4286    4.2350    9.6394 C   0  0  0  0  0  0  0  0  0  0  0  0
    1.3527    4.6489    7.8578 C   0  0  0  0  0  0  0  0  0  0  0  0
    2.1074    3.9883   10.0094 C   0  0  0  0  0  0  0  0  0  0  0  0
    1.0608    4.1954    9.1348 C   0  0  0  0  0  0  0  0  0  0  0  0
   -0.2284    3.9477    9.3581 O   0  0  0  0  0  0  0  0  0  0  0  0
   -0.5889    3.5226   10.6889 C   0  0  0  0  0  0  0  0  0  0  0  0
  2  1  2  0
  3  2  1  0
  4  1  1  0
  5  4  2  0
  6  5  1  0
  6  3  2  0
  7  2  1  0
  8  7  2  0
  9  8  1  0
  9  3  1  0
 10  1  1  0
 11  9  1  0
 12 11  2  0
 13 11  1  0
 14 12  1  0
 15 13  2  0
 16 15  1  0
 16 14  2  0
 17 16  1  0
 18 17  1  0
 19 18  1  0
 20 19  1  0
 21 20  1  0
 22 21  1  0
 23 22  2  0
 24 22  1  0
 25 23  1  0
 26 24  2  0
 27 26  1  0
 27 25  2  0
 28 27  1  0
 29 28  1  0
M  END
>  <SMILES>  (23) 
COc1ccc(CSCCOc2ccc(-n3ncc4c(N)ncnc43)cc2)cc1

>  <scaffold>  (23) 
pyrimidine

$$$$

     RDKit          3D

 24 26  0  0  0  0  0  0  0  0999 V2000
    0.0000   -0.0000   -0.0000 N   0  0  0  0  0  0  0  0  0  0  0  0
    0.0000   -0.0000    1.3704 C   0  0  0  0  0  0  0  0  0  0  0  0
    1.0900   -0.0000    2.0402 N   0  0  0  0  0  0  0  0  0  0  0  0
    1.1739   -0.1741   -0.6852 C   0  0  0  0  0  0  0  0  0  0  0  0
    2.3550   -0.2905    0.0000 C   0  0  0  0  0  0  0  0  0  0  0  0
    2.3044   -0.1010    1.4462 C   0  0  0  0  0  0  0  0  0  0  0  0
    3.6917    0.0087    2.2713 S   0  0  0  0  0  0  0  0  0  0  0  0
    3.6604   -0.5361   -0.7008 C   0  0  0  0  0  0  0  0  0  0  0  0
   -1.2971    0.0000    2.0393 C   0  0  0  0  0  0  0  0  0  0  0  0
   -2.4693   -0.3556    1.4076 C   0  0  0  0  0  0  0  0  0  0  0  0
   -1.3523    0.3485    3.3880 C   0  0  0  0  0  0  0  0  0  0  0  0
   -3.6239   -0.2958    2.0374 N   0  0  0  0  0  0  0  0  0  0  0  0
   -2.5466    0.4096    4.0412 C   0  0  0  0  0  0  0  0  0  0  0  0
   -3.7095    0.1010    3.2819 C   0  0  0  0  0  0  0  0  0  0  0  0
   -4.8527    0.2218    3.9390 O   0  0  0  0  0  0  0  0  0  0  0  0
    3.7806   -1.9900   -1.1547 C   0  0  0  0  0  0  0  0  0  0  0  0
   -6.0693   -0.1309    3.3567 C   0  0  0  0  0  0  0  0  0  0  0  0
   -6.1893   -1.2427    2.5376 C   0  0  0  0  0  0  0  0  0  0  0  0
   -7.1803    0.6506    3.6334 C   0  0  0  0  0  0  0  0  0  0  0  0
   -7.4302   -1.5817    2.0212 C   0  0  0  0  0  0  0  0  0  0  0  0
   -8.4138    0.3123    3.1202 C   0  0  0  0  0  0  0  0  0  0  0  0
   -8.5496   -0.8547    2.3645 C   0  0  0  0  0  0  0  0  0  0  0  0
   -9.7395   -1.1947    1.7944 F   0  0  0  0  0  0  0  0  0  0  0  0
   -9.4613    1.1320    3.3773 N   0  0  0  0  0  0  0  0  0  0  0  0
  2  1  1  0
  3  2  2  0
  4  1  1  0
  5  4  2  0
  6  5  1  0
  6  3  1  0
  7  6  2  0
  8  5  1  0
  9  2  1  0
 10  9  2  0
 11  9  1  0
 12 10  1  0
 13 11  2  0
 14 13  1  0
 14 12  2  0
 15 14  1  0
 16  8  1  0
 17 15  1  0
 18 17  2  0
 19 17  1  0
 20 18  1  0
 21 19  2  0
 22 21  1  0
 22 20  2  0
 23 22  1  0
 24 21  1  0
M  END
>  <SMILES>  (24) 
CCc1c[nH]c(-c2ccc(Oc3ccc(F)c(N)c3)nc2)nc1=S

>  <scaffold>  (24) 
pyrimidine

$$$$

     RDKit          3D

 30 33  0  0  0  0  0  0  0  0999 V2000
   -0.0000    0.0000    0.0000 N   0  0  0  0  0  0  0  0  0  0  0  0
   -0.0000   -0.0000    1.3317 C   0  0  0  0  0  0  0  0  0  0  0  0
    1.0543   -0.0000    2.1327 N   0  0  0  0  0  0  0  0  0  0  0  0
    1.1194   -0.0000   -0.7213 C   0  0  0  0  0  0  0  0  0  0  0  0
    2.3048    0.0000    0.0425 C   0  0  0  0  0  0  0  0  0  0  0  0
    2.1602   -0.0000    1.4452 C   0  0  0  0  0  0  0  0  0  0  0  0
    3.6272    0.0533   -0.2468 N   0  0  0  0  0  0  0  0  0  0  0  0
    3.4142    0.0534    1.9342 O   0  0  0  0  0  0  0  0  0  0  0  0
    4.2796    0.0715    0.8536 N   0  0  0  0  0  0  0  0  0  0  0  0
    1.0708   -0.0486   -2.0666 N   0  0  0  0  0  0  0  0  0  0  0  0
   -1.5825    0.0777    2.0579 S   0  0  0  0  0  0  0  0  0  0  0  0
   -1.1279   -0.0173    3.8333 C   0  0  0  0  0  0  0  0  0  0  0  0
   -0.1372    0.2180   -2.8251 C   0  0  0  0  0  0  0  0  0  0  0  0
   -0.1530    1.6659   -3.2549 C   0  0  0  0  0  0  0  0  0  0  0  0
   -0.4367    2.6761   -2.3370 C   0  0  0  0  0  0  0  0  0  0  0  0
    0.1270    2.0620   -4.5619 C   0  0  0  0  0  0  0  0  0  0  0  0
   -0.4141    4.0130   -2.6715 C   0  0  0  0  0  0  0  0  0  0  0  0
    0.1487    3.4067   -4.8978 C   0  0  0  0  0  0  0  0  0  0  0  0
   -0.0985    4.4019   -3.9725 C   0  0  0  0  0  0  0  0  0  0  0  0
   -1.2398   -1.4187    4.3369 C   0  0  0  0  0  0  0  0  0  0  0  0
   -0.3497   -2.4138    3.9356 C   0  0  0  0  0  0  0  0  0  0  0  0
   -2.1919   -1.7787    5.2777 C   0  0  0  0  0  0  0  0  0  0  0  0
   -0.4436   -3.7373    4.3368 C   0  0  0  0  0  0  0  0  0  0  0  0
   -2.2898   -3.1021    5.6784 C   0  0  0  0  0  0  0  0  0  0  0  0
   -1.4684   -4.1090    5.1800 C   0  0  0  0  0  0  0  0  0  0  0  0
   -0.0153    5.7275   -4.3408 N   0  0  0  0  0  0  0  0  0  0  0  0
   -0.6057    6.8037   -3.5825 C   0  0  0  0  0  0  0  0  0  0  0  0
   -2.1296    6.8025   -3.6926 C   0  0  0  0  0  0  0  0  0  0  0  0
   -2.5930    7.0473   -5.1277 C   0  0  0  0  0  0  0  0  0  0  0  0
   -4.1181    6.9823   -5.1931 C   0  0  0  0  0  0  0  0  0  0  0  0
  2  1  2  0
  3  2  1  0
  4  1  1  0
  5  4  2  0
  6  5  1  0
  6  3  2  0
  7  5  1  0
  8  6  1  0
  9  8  1  0
  9  7  2  0
 10  4  1  0
 11  2  1  0
 12 11  1  0
 13 10  1  0
 14 13  1  0
 15 14  2  0
 16 14  1  0
 17 15  1  0
 18 16  2  0
 19 18  1  0
 19 17  2  0
 20 12  1  0
 21 20  2  0
 22 20  1  0
 23 21  1  0
 24 22  2  0
 25 24  1  0
 25 23  2  0
 26 19  1  0
 27 26  1  0
 28 27  1  0
 29 28  1  0
 30 29  1  0
M  END
>  <SMILES>  (25) 
CCCCNc1ccc(CNc2nc(SCc3ccccc3)nc3onnc23)cc1

>  <scaffold>  (25) 
pyrimidine

$$$$

     RDKit          3D

 29 31  0  0  0  0  0  0  0  0999 V2000
   -0.0000    0.0000    0.0000 N   0  0  0  0  0  0  0  0  0  0  0  0
    0.0000    0.0000    1.3165 C   0  0  0  0  0  0  0  0  0  0  0  0
    1.0483   -0.0000    2.1130 N   0  0  0  0  0  0  0  0  0  0  0  0
    1.1904   -0.0000   -0.6139 C   0  0  0  0  0  0  0  0  0  0  0  0
    2.3556   -0.0000    0.1370 C   0  0  0  0  0  0  0  0  0  0  0  0
    2.2208    0.0000    1.5326 C   0  0  0  0  0  0  0  0  0  0  0  0
    1.1415   -0.0489   -1.9669 N   0  0  0  0  0  0  0  0  0  0  0  0
    3.3190   -0.0483    2.2977 O   0  0  0  0  0  0  0  0  0  0  0  0
    3.2451    0.0806    3.6839 C   0  0  0  0  0  0  0  0  0  0  0  0
    2.5035    1.0856    4.3033 C   0  0  0  0  0  0  0  0  0  0  0  0
    4.0165   -0.8146    4.4235 C   0  0  0  0  0  0  0  0  0  0  0  0
    2.5001    1.2031    5.6765 C   0  0  0  0  0  0  0  0  0  0  0  0
    4.0135   -0.6931    5.7964 C   0  0  0  0  0  0  0  0  0  0  0  0
    3.2809    0.3566    6.4337 C   0  0  0  0  0  0  0  0  0  0  0  0
    3.2831    0.5893    8.1311 Cl  0  0  0  0  0  0  0  0  0  0  0  0
    4.7096   -1.5710    6.5581 O   0  0  0  0  0  0  0  0  0  0  0  0
    5.8063   -2.2712    6.1036 C   0  0  0  0  0  0  0  0  0  0  0  0
    6.7747   -1.6453    5.3200 C   0  0  0  0  0  0  0  0  0  0  0  0
    5.9927   -3.5887    6.4918 C   0  0  0  0  0  0  0  0  0  0  0  0
    7.8783   -2.3729    4.9299 C   0  0  0  0  0  0  0  0  0  0  0  0
    7.0991   -4.3127    6.1028 C   0  0  0  0  0  0  0  0  0  0  0  0
    8.0649   -3.6810    5.3488 C   0  0  0  0  0  0  0  0  0  0  0  0
    9.1077   -4.4496    4.9524 O   0  0  0  0  0  0  0  0  0  0  0  0
   10.0707   -3.9083    4.0629 C   0  0  0  0  0  0  0  0  0  0  0  0
   11.0844   -5.0069    3.7469 C   0  0  0  0  0  0  0  0  0  0  0  0
   12.1520   -4.5704    2.7450 C   0  0  0  0  0  0  0  0  0  0  0  0
   13.1372   -3.5682    3.3445 C   0  0  0  0  0  0  0  0  0  0  0  0
   14.2132   -3.2063    2.3219 C   0  0  0  0  0  0  0  0  0  0  0  0
   15.2566   -2.2465    2.8915 C   0  0  0  0  0  0  0  0  0  0  0  0
  2  1  2  0
  3  2  1  0
  4  1  1  0
  5  4  2  0
  6  5  1  0
  6  3  2  0
  7  4  1  0
  8  6  1  0
  9  8  1  0
 10  9  2  0
 11  9  1  0
 12 10  1  0
 13 11  2  0
 14 13  1  0
 14 12  2  0
 15 14  1  0
 16 13  1  0
 17 16  1  0
 18 17  2  0
 19 17  1  0
 20 18  1  0
 21 19  2  0
 22 20  2  0
 22 21  1  0
 23 22  1  0
 24 23  1  0
 25 24  1  0
 26 25  1  0
 27 26  1  0
 28 27  1  0
 29 28  1  0
M  END
>  <SMILES>  (26) 
CCCCCCOc1ccc(Oc2cc(Oc3cc(N)ncn3)ccc2Cl)cc1

>  <scaffold>  (26) 
pyrimidine

$$$$

     RDKit          3D

 25 27  0  0  0  0  0  0  0  0999 V2000
    0.0000   -0.0000   -0.0000 C   0  0  0  0  0  0  0  0  0  0  0  0
    0.0000    0.0000    1.3941 C   0  0  0  0  0  0  0  0  0  0  0  0
    1.2566   -0.0000    1.9794 C   0  0  0  0  0  0  0  0  0  0  0  0
    1.1194    0.0000   -0.7213 N   0  0  0  0  0  0  0  0  0  0  0  0
    2.2388    0.0000    0.0000 C   0  0  0  0  0  0  0  0  0  0  0  0
    2.3669    0.0000    1.3255 N   0  0  0  0  0  0  0  0  0  0  0  0
    1.4633   -0.0554    3.3650 N   0  0  0  0  0  0  0  0  0  0  0  0
   -1.1768    0.0000   -0.6069 O   0  0  0  0  0  0  0  0  0  0  0  0
    0.5534   -0.1171    4.3774 C   0  0  0  0  0  0  0  0  0  0  0  0
   -0.6414   -0.1333    4.1984 O   0  0  0  0  0  0  0  0  0  0  0  0
   -1.2277    0.0509   -2.0152 C   0  0  0  0  0  0  0  0  0  0  0  0
    1.1583   -0.1038    5.6245 N   0  0  0  0  0  0  0  0  0  0  0  0
    0.5337   -0.2075    6.8310 C   0  0  0  0  0  0  0  0  0  0  0  0
    1.0604   -0.2463    8.0124 N   0  0  0  0  0  0  0  0  0  0  0  0
   -1.2008   -0.3731    6.7862 S   0  0  0  0  0  0  0  0  0  0  0  0
    0.2197   -0.2992    9.0537 N   0  0  0  0  0  0  0  0  0  0  0  0
   -0.8663   -0.3363    8.5065 C   0  0  0  0  0  0  0  0  0  0  0  0
   -2.0480   -0.3902    9.4038 C   0  0  0  0  0  0  0  0  0  0  0  0
   -2.8475    0.8897    9.3395 C   0  0  0  0  0  0  0  0  0  0  0  0
   -3.7714    1.0917    8.3260 C   0  0  0  0  0  0  0  0  0  0  0  0
   -2.5873    1.9183   10.2191 C   0  0  0  0  0  0  0  0  0  0  0  0
   -4.4875    2.2624    8.1983 C   0  0  0  0  0  0  0  0  0  0  0  0
   -3.2969    3.0655   10.0927 C   0  0  0  0  0  0  0  0  0  0  0  0
   -4.2996    3.2964    9.1021 C   0  0  0  0  0  0  0  0  0  0  0  0
   -4.9794    4.4683    9.1111 O   0  0  0  0  0  0  0  0  0  0  0  0
  2  1  2  0
  3  2  1  0
  4  1  1  0
  5  4  2  0
  6  5  1  0
  6  3  2  0
  7  3  1  0
  8  1  1  0
  9  7  1  0
 10  9  2  0
 11  8  1  0
 12  9  1  0
 13 12  1  0
 14 13  2  0
 15 13  1  0
 16 14  1  0
 17 16  2  0
 17 15  1  0
 18 17  1  0
 19 18  1  0
 20 19  2  0
 21 19  1  0
 22 20  1  0
 23 21  2  0
 24 23  1  0
 24 22  2  0
 25 24  1  0
M  END
>  <SMILES>  (27) 
COc1cc(NC(=O)Nc2nnc(Cc3ccc(O)cc3)s2)ncn1

>  <scaffold>  (27) 
pyrimidine

$$$$

     RDKit          3D

 38 39  0  0  0  0  0  0  0  0999 V2000
   -0.0000   -0.0000   -0.0000 N   0  0  0  0  0  0  0  0  0  0  0  0
   -0.0000   -0.0000    1.3241 C   0  0  0  0  0  0  0  0  0  0  0  0
    1.0801    0.0000    2.0900 N   0  0  0  0  0  0  0  0  0  0  0  0
    1.1585   -0.0569   -0.6697 C   0  0  0  0  0  0  0  0  0  0  0  0
    2.3425    0.0013    0.0942 C   0  0  0  0  0  0  0  0  0  0  0  0
    2.2781    0.1117    1.4665 C   0  0  0  0  0  0  0  0  0  0  0  0
   -1.5402    0.0000    2.1184 S   0  0  0  0  0  0  0  0  0  0  0  0
    1.1079   -0.1028   -2.0073 N   0  0  0  0  0  0  0  0  0  0  0  0
    2.2032   -0.3294   -2.9187 C   0  0  0  0  0  0  0  0  0  0  0  0
   -1.0789   -0.0731    3.9039 C   0  0  2  0  0  0  0  0  0  0  0  0
   -1.3041   -1.4715    4.4284 C   0  0  0  0  0  0  0  0  0  0  0  0
   -2.5517   -2.0905    4.3651 C   0  0  0  0  0  0  0  0  0  0  0  0
   -0.2601   -2.1482    5.0214 C   0  0  0  0  0  0  0  0  0  0  0  0
   -2.8177   -3.3509    4.8773 C   0  0  0  0  0  0  0  0  0  0  0  0
   -0.5257   -3.4019    5.5287 C   0  0  0  0  0  0  0  0  0  0  0  0
   -1.7975   -4.0469    5.4890 C   0  0  0  0  0  0  0  0  0  0  0  0
   -1.9934    0.9243    4.6134 C   0  0  0  0  0  0  0  0  0  0  0  0
   -1.9498   -5.2744    6.0788 O   0  0  0  0  0  0  0  0  0  0  0  0
   -3.1926   -5.9569    6.0436 C   0  0  0  0  0  0  0  0  0  0  0  0
   -3.4475   -6.5834    4.6736 C   0  0  0  0  0  0  0  0  0  0  0  0
   -4.7043   -7.4506    4.6222 C   0  0  0  0  0  0  0  0  0  0  0  0
   -4.9731   -8.1407    3.2958 C   0  0  0  0  0  0  0  0  0  0  0  0
   -6.2686   -8.9504    3.2802 C   0  0  0  0  0  0  0  0  0  0  0  0
   -6.6128   -9.6201    1.9507 C   0  0  0  0  0  0  0  0  0  0  0  0
   -7.8874  -10.4610    2.0035 C   0  0  0  0  0  0  0  0  0  0  0  0
   -8.2461  -11.1964    0.7132 C   0  0  0  0  0  0  0  0  0  0  0  0
   -9.5408  -12.0076    0.6968 C   0  0  0  0  0  0  0  0  0  0  0  0
   -9.8807  -12.6786   -0.6331 C   0  0  0  0  0  0  0  0  0  0  0  0
  -11.1929  -13.4566   -0.7179 C   0  0  0  0  0  0  0  0  0  0  0  0
  -11.5115  -14.0620   -2.0841 C   0  0  0  0  0  0  0  0  0  0  0  0
  -12.8053  -14.8744   -2.1014 C   0  0  0  0  0  0  0  0  0  0  0  0
  -13.1411  -15.5468   -3.4316 C   0  0  0  0  0  0  0  0  0  0  0  0
  -14.4141  -16.3900   -3.3804 C   0  0  0  0  0  0  0  0  0  0  0  0
  -14.7325  -16.9915   -4.7386 C   0  0  0  0  0  0  0  0  0  0  0  0
  -16.0394  -17.7776   -4.6465 C   0  0  0  0  0  0  0  0  0  0  0  0
  -16.4333  -18.3588   -6.0035 C   0  0  0  0  0  0  0  0  0  0  0  0
  -17.7059  -19.1736   -5.8472 C   0  0  0  0  0  0  0  0  0  0  0  0
  -18.0855  -19.6850   -7.2360 C   0  0  0  0  0  0  0  0  0  0  0  0
  2  1  2  0
  3  2  1  0
  4  1  1  0
  5  4  2  0
  6  5  1  0
  6  3  2  0
  7  2  1  0
  8  4  1  0
  9  8  1  0
 10  7  1  0
 11 10  1  0
 12 11  1  0
 13 11  2  0
 14 12  1  0
 15 13  1  0
 16 15  2  0
 16 14  1  0
 10 17  1  1
 18 16  1  0
 19 18  1  0
 20 19  1  0
 21 20  1  0
 22 21  1  0
 23 22  1  0
 24 23  1  0
 25 24  1  0
 26 25  1  0
 27 26  1  0
 28 27  1  0
 29 28  1  0
 30 29  1  0
 31 30  1  0
 32 31  1  0
 33 32  1  0
 34 33  1  0
 35 34  1  0
 36 35  1  0
 37 36  1  0
 38 37  1  0
M  END
>  <SMILES>  (28) 
CCCCCCCCCCCCCCCCCCCCOC1=CC=C(C(C)Sc2nccc(NC)n2)CC1

>  <scaffold>  (28) 
pyrimidine

$$$$

     RDKit          3D

 20 21  0  0  0  0  0  0  0  0999 V2000
   -0.0000   -0.0000   -0.0000 C   0  0  0  0  0  0  0  0  0  0  0  0
    0.0000    0.0000    1.4264 C   0  0  0  0  0  0  0  0  0  0  0  0
    1.2539    0.0000    2.0357 C   0  0  0  0  0  0  0  0  0  0  0  0
    1.1453   -0.0563   -0.6620 N   0  0  0  0  0  0  0  0  0  0  0  0
    2.2570   -0.1109    0.0552 C   0  0  0  0  0  0  0  0  0  0  0  0
    2.3201   -0.1140    1.3854 N   0  0  0  0  0  0  0  0  0  0  0  0
   -1.1719    0.0000    2.1816 N   0  0  0  0  0  0  0  0  0  0  0  0
    3.7198   -0.2453   -0.8643 S   0  0  0  0  0  0  0  0  0  0  0  0
    4.8901   -0.2089    0.5350 C   0  0  0  0  0  0  0  0  0  0  0  0
    5.0886    1.2037    1.1296 C   0  0  1  0  0  0  0  0  0  0  0  0
    5.4331    1.0726    2.4991 O   0  0  0  0  0  0  0  0  0  0  0  0
    6.1766    1.9969    0.4451 C   0  0  0  0  0  0  0  0  0  0  0  0
    7.5151    1.6283    0.5723 C   0  0  0  0  0  0  0  0  0  0  0  0
    5.9125    3.1109   -0.3222 C   0  0  0  0  0  0  0  0  0  0  0  0
    8.5425    2.2951   -0.0766 C   0  0  0  0  0  0  0  0  0  0  0  0
    6.9398    3.7778   -0.9715 C   0  0  0  0  0  0  0  0  0  0  0  0
    8.1890    3.3267   -0.9194 C   0  0  0  0  0  0  0  0  0  0  0  0
    6.7230    4.8408   -1.7699 O   0  0  0  0  0  0  0  0  0  0  0  0
    5.4312    5.3253   -2.0617 C   0  0  0  0  0  0  0  0  0  0  0  0
    5.4879    6.5061   -3.0433 C   0  0  0  0  0  0  0  0  0  0  0  0
  2  1  2  0
  3  2  1  0
  4  1  1  0
  5  4  2  0
  6  5  1  0
  6  3  2  0
  7  2  1  0
  8  5  1  0
  9  8  1  0
 10  9  1  0
 10 11  1  1
 12 10  1  0
 13 12  2  0
 14 12  1  0
 15 13  1  0
 16 14  2  0
 17 16  1  0
 17 15  2  0
 18 16  1  0
 19 18  1  0
 20 19  1  0
M  END
>  <SMILES>  (29) 
CCOc1cccc(C(O)CSc2ncc(N)cn2)c1

>  <scaffold>  (29) 
pyrimidine

$$$$

     RDKit          3D

 24 25  0  0  0  0  0  0  0  0999 V2000
    0.0000   -0.0000    0.0000 N   0  0  0  0  0  0  0  0  0  0  0  0
    0.0000   -0.0000    1.3704 C   0  0  0  0  0  0  0  0  0  0  0  0
    1.2086   -0.0000    1.9824 N   0  0  0  0  0  0  0  0  0  0  0  0
    1.1922   -0.0586   -0.6891 C   0  0  0  0  0  0  0  0  0  0  0  0
    2.4086    0.0012   -0.0610 C   0  0  0  0  0  0  0  0  0  0  0  0
    2.4770    0.0046    1.3719 C   0  0  0  0  0  0  0  0  0  0  0  0
    3.5058    0.0074    2.0314 O   0  0  0  0  0  0  0  0  0  0  0  0
   -1.3995   -0.0000    2.2722 S   0  0  0  0  0  0  0  0  0  0  0  0
    1.1331   -0.1834   -2.0368 N   0  0  0  0  0  0  0  0  0  0  0  0
    3.6451   -0.0040   -0.7221 N   0  0  0  0  0  0  0  0  0  0  0  0
   -1.2480    0.0613   -0.7214 C   0  0  0  0  0  0  0  0  0  0  0  0
   -1.7544   -1.3538   -1.0416 C   0  0  0  0  0  0  0  0  0  0  0  0
   -2.8792   -1.1400   -1.8647 O   0  0  0  0  0  0  0  0  0  0  0  0
   -3.4686   -2.3716   -2.1835 C   0  0  0  0  0  0  0  0  0  0  0  0
   -4.2088   -3.0145   -1.0117 C   0  0  0  0  0  0  0  0  0  0  0  0
   -4.8947   -4.1866   -1.4206 O   0  0  0  0  0  0  0  0  0  0  0  0
   -5.4894   -4.9939   -0.5095 C   0  0  0  0  0  0  0  0  0  0  0  0
   -5.4570   -4.7178    0.8485 C   0  0  0  0  0  0  0  0  0  0  0  0
   -6.1861   -6.0953   -0.9580 C   0  0  0  0  0  0  0  0  0  0  0  0
   -6.0341   -5.5944    1.7419 C   0  0  0  0  0  0  0  0  0  0  0  0
   -6.7656   -6.9720   -0.0663 C   0  0  0  0  0  0  0  0  0  0  0  0
   -6.6642   -6.7727    1.3443 C   0  0  0  0  0  0  0  0  0  0  0  0
   -7.1485   -7.5798    2.3187 O   0  0  0  0  0  0  0  0  0  0  0  0
   -7.7525   -8.8135    1.9656 C   0  0  0  0  0  0  0  0  0  0  0  0
  2  1  1  0
  3  2  1  0
  4  1  1  0
  5  4  2  0
  6  5  1  0
  6  3  1  0
  7  6  2  0
  8  2  2  0
  9  4  1  0
 10  5  1  0
 11  1  1  0
 12 11  1  0
 13 12  1  0
 14 13  1  0
 15 14  1  0
 16 15  1  0
 17 16  1  0
 18 17  2  0
 19 17  1  0
 20 18  1  0
 21 19  2  0
 22 21  1  0
 22 20  2  0
 23 22  1  0
 24 23  1  0
M  END
>  <SMILES>  (30) 
COc1ccc(OCCOCCn2c(N)c(N)c(=O)[nH]c2=S)cc1

>  <scaffold>  (30) 
pyrimidine

$$$$

     RDKit          3D

 31 33  0  0  0  0  0  0  0  0999 V2000
   -0.0000    0.0000   -0.0000 N   0  0  0  0  0  0  0  0  0  0  0  0
    0.0000    0.0000    1.3317 C   0  0  0  0  0  0  0  0  0  0  0  0
    1.0735    0.0000    2.1198 N   0  0  0  0  0  0  0  0  0  0  0  0
    1.1836    0.0000   -0.6104 C   0  0  0  0  0  0  0  0  0  0  0  0
    2.3622    0.0000    0.1491 C   0  0  0  0  0  0  0  0  0  0  0  0
    2.2289    0.0000    1.5289 C   0  0  0  0  0  0  0  0  0  0  0  0
   -1.2110   -0.0000    1.9562 N   0  0  0  0  0  0  0  0  0  0  0  0
    1.2319   -0.0483   -1.9480 O   0  0  0  0  0  0  0  0  0  0  0  0
    3.2988    0.0531    2.3709 N   0  0  0  0  0  0  0  0  0  0  0  0
    0.0143    0.0845   -2.7261 C   0  0  0  0  0  0  0  0  0  0  0  0
   -0.3005    1.5407   -2.9154 C   0  0  0  0  0  0  0  0  0  0  0  0
    0.1863    2.2656   -3.9817 C   0  0  0  0  0  0  0  0  0  0  0  0
   -0.9840    2.2501   -1.9402 C   0  0  0  0  0  0  0  0  0  0  0  0
   -0.0372    3.6285   -4.1723 C   0  0  0  0  0  0  0  0  0  0  0  0
   -1.2070    3.5959   -2.1366 C   0  0  0  0  0  0  0  0  0  0  0  0
   -0.7587    4.2685   -3.1656 C   0  0  0  0  0  0  0  0  0  0  0  0
    0.4617    4.2348   -5.3146 N   0  0  0  0  0  0  0  0  0  0  0  0
   -0.0447    5.4051   -5.9719 C   0  0  0  0  0  0  0  0  0  0  0  0
   -1.4237    5.2372   -6.5866 C   0  0  0  0  0  0  0  0  0  0  0  0
   -2.1336    4.0487   -6.5170 C   0  0  0  0  0  0  0  0  0  0  0  0
   -1.9751    6.3568   -7.1898 C   0  0  0  0  0  0  0  0  0  0  0  0
   -3.3751    3.9273   -7.1396 C   0  0  0  0  0  0  0  0  0  0  0  0
   -3.2103    6.2386   -7.8077 C   0  0  0  0  0  0  0  0  0  0  0  0
   -3.8682    4.9824   -7.8766 C   0  0  0  0  0  0  0  0  0  0  0  0
   -3.9434    7.9400   -8.7565 I   0  0  0  0  0  0  0  0  0  0  0  0
   -5.0834    4.9280   -8.4552 O   0  0  0  0  0  0  0  0  0  0  0  0
   -5.9080    3.7809   -8.3301 C   0  0  0  0  0  0  0  0  0  0  0  0
   -7.1852    3.9765   -9.1289 C   0  0  0  0  0  0  0  0  0  0  0  0
   -8.1343    2.7882   -8.9827 C   0  0  0  0  0  0  0  0  0  0  0  0
   -9.4299    3.0595   -9.7632 C   0  0  0  0  0  0  0  0  0  0  0  0
  -10.3185    1.8237   -9.6304 C   0  0  0  0  0  0  0  0  0  0  0  0
  2  1  2  0
  3  2  1  0
  4  1  1  0
  5  4  2  0
  6  5  1  0
  6  3  2  0
  7  2  1  0
  8  4  1  0
  9  6  1  0
 10  8  1  0
 11 10  1  0
 12 11  2  0
 13 11  1  0
 14 12  1  0
 15 13  2  0
 16 15  1  0
 16 14  2  0
 17 14  1  0
 18 17  1  0
 19 18  1  0
 20 19  2  0
 21 19  1  0
 22 20  1  0
 23 21  2  0
 24 22  2  0
 24 23  1  0
 25 23  1  0
 26 24  1  0
 27 26  1  0
 28 27  1  0
 29 28  1  0
 30 29  1  0
 31 30  1  0
M  END
>  <SMILES>  (31) 
CCCCCOc1ccc(CNc2cccc(COc3cc(N)nc(N)n3)c2)cc1I

>  <scaffold>  (31) 
pyrimidine

$$$$

     RDKit          3D

 32 34  0  0  0  0  0  0  0  0999 V2000
   -0.0000    0.0000    0.0000 N   0  0  0  0  0  0  0  0  0  0  0  0
   -0.0000    0.0000    1.3165 C   0  0  0  0  0  0  0  0  0  0  0  0
    1.0483    0.0000    2.1130 N   0  0  0  0  0  0  0  0  0  0  0  0
    1.1836    0.0000   -0.6104 C   0  0  0  0  0  0  0  0  0  0  0  0
    2.3488   -0.0000    0.1405 C   0  0  0  0  0  0  0  0  0  0  0  0
    2.2140    0.0000    1.5361 C   0  0  0  0  0  0  0  0  0  0  0  0
    3.3248   -0.0489    2.3101 N   0  0  0  0  0  0  0  0  0  0  0  0
    1.1355   -0.0480   -1.9403 O   0  0  0  0  0  0  0  0  0  0  0  0
    2.3225   -0.1083   -2.6993 C   0  0  0  0  0  0  0  0  0  0  0  0
    3.2462   -0.0026    3.6463 N   0  0  0  0  0  0  0  0  0  0  0  0
    4.3171   -0.0976    4.3398 C   0  0  0  0  0  0  0  0  0  0  0  0
    4.2900   -0.0021    5.7709 C   0  0  0  0  0  0  0  0  0  0  0  0
    5.4689   -0.1605    6.4826 C   0  0  0  0  0  0  0  0  0  0  0  0
    3.1387    0.2585    6.5128 C   0  0  0  0  0  0  0  0  0  0  0  0
    5.4834   -0.1259    7.8683 C   0  0  0  0  0  0  0  0  0  0  0  0
    3.1706    0.3900    7.8844 C   0  0  0  0  0  0  0  0  0  0  0  0
    4.2841    0.1328    8.5470 C   0  0  0  0  0  0  0  0  0  0  0  0
    6.9776   -0.3917    8.7049 Cl  0  0  0  0  0  0  0  0  0  0  0  0
    4.2600    0.2240    9.8985 O   0  0  0  0  0  0  0  0  0  0  0  0
    5.1587    0.9743   10.6108 C   0  0  0  0  0  0  0  0  0  0  0  0
    5.6466    2.1566   10.0765 C   0  0  0  0  0  0  0  0  0  0  0  0
    5.5600    0.5985   11.9006 C   0  0  0  0  0  0  0  0  0  0  0  0
    6.5203    2.9105   10.8587 C   0  0  0  0  0  0  0  0  0  0  0  0
    6.4221    1.3464   12.6732 C   0  0  0  0  0  0  0  0  0  0  0  0
    6.8557    2.5453   12.1447 C   0  0  0  0  0  0  0  0  0  0  0  0
    6.9690    4.0131   10.2119 O   0  0  0  0  0  0  0  0  0  0  0  0
    7.9013    4.7859   10.9502 C   0  0  0  0  0  0  0  0  0  0  0  0
    8.2683    5.9013    9.9727 C   0  0  0  0  0  0  0  0  0  0  0  0
    9.1621    6.7794   10.6197 O   0  0  0  0  0  0  0  0  0  0  0  0
   10.4982    6.3372   10.7085 C   0  0  0  0  0  0  0  0  0  0  0  0
   11.3714    7.4091   11.3792 C   0  0  0  0  0  0  0  0  0  0  0  0
   12.8418    7.0002   11.4504 C   0  0  0  0  0  0  0  0  0  0  0  0
  2  1  2  0
  3  2  1  0
  4  1  1  0
  5  4  2  0
  6  5  1  0
  6  3  2  0
  7  6  1  0
  8  4  1  0
  9  8  1  0
 10  7  1  0
 11 10  2  0
 12 11  1  0
 13 12  2  0
 14 12  1  0
 15 13  1  0
 16 14  2  0
 17 16  1  0
 17 15  2  0
 18 15  1  0
 19 17  1  0
 20 19  1  0
 21 20  2  0
 22 20  1  0
 23 21  1  0
 24 22  2  0
 25 23  2  0
 25 24  1  0
 26 23  1  0
 27 26  1  0
 28 27  1  0
 29 28  1  0
 30 29  1  0
 31 30  1  0
 32 31  1  0
M  END
>  <SMILES>  (32) 
CCCOCCOc1cccc(Oc2ccc(C=NNc3cc(OC)ncn3)cc2Cl)c1

>  <scaffold>  (32) 
pyrimidine

$$$$

     RDKit          3D

 19 20  0  0  0  0  0  0  0  0999 V2000
   -0.0000    0.0000   -0.0000 C   0  0  0  0  0  0  0  0  0  0  0  0
   -0.0000    0.0000    1.3862 C   0  0  0  0  0  0  0  0  0  0  0  0
    1.2437    0.0000    2.0160 C   0  0  0  0  0  0  0  0  0  0  0  0
    1.1130   -0.0000   -0.7172 N   0  0  0  0  0  0  0  0  0  0  0  0
    2.2453    0.0000    0.0124 C   0  0  0  0  0  0  0  0  0  0  0  0
    2.3734    0.0000    1.3380 N   0  0  0  0  0  0  0  0  0  0  0  0
    3.4158   -0.0492   -0.6833 N   0  0  0  0  0  0  0  0  0  0  0  0
    3.5441   -0.0971   -2.0157 N   0  0  0  0  0  0  0  0  0  0  0  0
    4.6599   -0.0963   -2.6265 C   0  0  0  0  0  0  0  0  0  0  0  0
    4.8508   -0.1986   -4.0530 C   0  0  0  0  0  0  0  0  0  0  0  0
    6.1082   -0.1425   -4.6888 C   0  0  0  0  0  0  0  0  0  0  0  0
    3.7385   -0.3727   -4.8753 C   0  0  0  0  0  0  0  0  0  0  0  0
    6.3465   -0.2863   -6.0548 C   0  0  0  0  0  0  0  0  0  0  0  0
    3.9757   -0.5153   -6.2335 C   0  0  0  0  0  0  0  0  0  0  0  0
    5.2265   -0.5553   -6.7827 C   0  0  0  0  0  0  0  0  0  0  0  0
    7.1416    0.0199   -3.8156 O   0  0  0  0  0  0  0  0  0  0  0  0
    8.4084    0.1315   -4.4062 C   0  0  0  0  0  0  0  0  0  0  0  0
    9.0630   -1.1511   -4.9424 C   0  0  0  0  0  0  0  0  0  0  0  0
   10.0031   -1.1530   -5.7012 O   0  0  0  0  0  0  0  0  0  0  0  0
  2  1  2  0
  3  2  1  0
  4  1  1  0
  5  4  2  0
  6  5  1  0
  6  3  2  0
  7  5  1  0
  8  7  1  0
  9  8  2  0
 10  9  1  0
 11 10  2  0
 12 10  1  0
 13 11  1  0
 14 12  2  0
 15 14  1  0
 15 13  2  0
 16 11  1  0
 17 16  1  0
 18 17  1  0
 19 18  2  0
M  END
>  <SMILES>  (33) 
O=CCOc1ccccc1C=NNc1ncccn1

>  <scaffold>  (33) 
pyrimidine

$$$$

     RDKit          3D

 30 31  0  0  0  0  0  0  0  0999 V2000
   -0.0000    0.0000   -0.0000 N   0  0  0  0  0  0  0  0  0  0  0  0
    0.0000    0.0000    1.3165 C   0  0  0  0  0  0  0  0  0  0  0  0
    1.0552   -0.0000    2.0912 N   0  0  0  0  0  0  0  0  0  0  0  0
    1.1768   -0.0000   -0.6069 C   0  0  0  0  0  0  0  0  0  0  0  0
    2.3896    0.0596    0.0942 C   0  0  0  0  0  0  0  0  0  0  0  0
    2.3215    0.0613    1.5272 C   0  0  0  0  0  0  0  0  0  0  0  0
    3.6157    0.0132   -0.4804 N   0  0  0  0  0  0  0  0  0  0  0  0
    3.8609   -0.0333   -1.7885 N   0  0  0  0  0  0  0  0  0  0  0  0
    5.0036   -0.3281   -2.2632 C   0  0  0  0  0  0  0  0  0  0  0  0
    3.3887    0.0631    2.2852 N   0  0  0  0  0  0  0  0  0  0  0  0
    6.1459   -0.7094   -1.4093 C   0  0  0  0  0  0  0  0  0  0  0  0
    6.0585   -1.7565   -0.5052 C   0  0  0  0  0  0  0  0  0  0  0  0
    7.3508   -0.0276   -1.5735 C   0  0  0  0  0  0  0  0  0  0  0  0
    7.1352   -2.0442    0.3056 C   0  0  0  0  0  0  0  0  0  0  0  0
    8.4297   -0.3152   -0.7655 C   0  0  0  0  0  0  0  0  0  0  0  0
    8.2768   -1.2592    0.2627 C   0  0  0  0  0  0  0  0  0  0  0  0
    5.1475   -0.2910   -3.6414 N   0  0  0  0  0  0  0  0  0  0  0  0
    6.1695   -0.7887   -4.3640 C   0  0  0  0  0  0  0  0  0  0  0  0
    7.1298   -1.4114   -3.9768 O   0  0  0  0  0  0  0  0  0  0  0  0
    6.0319   -0.5360   -5.7281 N   0  0  0  0  0  0  0  0  0  0  0  0
    5.0477    0.1179   -6.4064 C   0  0  0  0  0  0  0  0  0  0  0  0
    4.0414    0.5689   -5.9127 O   0  0  0  0  0  0  0  0  0  0  0  0
    5.3535    0.1683   -7.7094 O   0  0  0  0  0  0  0  0  0  0  0  0
    4.4624    0.8700   -8.5879 C   0  0  0  0  0  0  0  0  0  0  0  0
    3.2126    0.0533   -8.9128 C   0  0  0  0  0  0  0  0  0  0  0  0
    2.1987    0.7830   -9.8076 C   0  0  1  0  0  0  0  0  0  0  0  0
    2.7047    0.9361  -11.2411 C   0  0  0  0  0  0  0  0  0  0  0  0
    0.8907    0.0173   -9.9123 C   0  0  1  0  0  0  0  0  0  0  0  0
    0.3680   -0.1396   -8.6724 F   0  0  0  0  0  0  0  0  0  0  0  0
   -0.1217    0.6670  -10.8257 C   0  0  0  0  0  0  0  0  0  0  0  0
  2  1  2  0
  3  2  1  0
  4  1  1  0
  5  4  2  0
  6  5  1  0
  6  3  2  0
  7  5  1  0
  8  7  1  0
  9  8  2  0
 10  6  1  0
 11  9  1  0
 12 11  2  0
 13 11  1  0
 14 12  1  0
 15 13  2  0
 16 15  1  0
 16 14  2  0
 17  9  1  0
 18 17  1  0
 19 18  2  0
 20 18  1  0
 21 20  1  0
 22 21  2  0
 23 21  1  0
 24 23  1  0
 25 24  1  0
 26 25  1  0
 26 27  1  6
 28 26  1  0
 29 28  1  0
 28 30  1  6
M  END
>  <SMILES>  (34) 
CC(F)C(C)CCOC(=O)NC(=O)NC(=NNc1cncnc1N)c1ccccc1

>  <scaffold>  (34) 
pyrimidine

$$$$

     RDKit          3D

 28 29  0  0  0  0  0  0  0  0999 V2000
    0.0000   -0.0000    0.0000 N   0  0  0  0  0  0  0  0  0  0  0  0
   -0.0000   -0.0000    1.2941 C   0  0  0  0  0  0  0  0  0  0  0  0
    1.1238   -0.0000    2.0367 N   0  0  0  0  0  0  0  0  0  0  0  0
    1.2041    0.0000   -0.6209 C   0  0  0  0  0  0  0  0  0  0  0  0
    2.4574   -0.0000    0.0254 C   0  0  0  0  0  0  0  0  0  0  0  0
    2.4574    0.0000    1.4600 C   0  0  0  0  0  0  0  0  0  0  0  0
    3.4094    0.0484    2.2248 O   0  0  0  0  0  0  0  0  0  0  0  0
    3.7508   -0.0536   -0.7018 C   0  0  0  0  0  0  0  0  0  0  0  0
    3.7861   -0.3680   -1.8750 O   0  0  0  0  0  0  0  0  0  0  0  0
   -1.5402   -0.0000    2.0884 S   0  0  0  0  0  0  0  0  0  0  0  0
    5.0444    0.3306    0.0147 C   0  0  0  0  0  0  0  0  0  0  0  0
    1.1558    0.0483   -1.9585 N   0  0  0  0  0  0  0  0  0  0  0  0
   -2.6736   -0.0686    0.6734 C   0  0  0  0  0  0  0  0  0  0  0  0
    6.0476    0.6725   -0.8909 O   0  0  0  0  0  0  0  0  0  0  0  0
    5.8977    1.8253   -1.6015 C   0  0  0  0  0  0  0  0  0  0  0  0
    6.9011    2.0998   -2.5297 C   0  0  0  0  0  0  0  0  0  0  0  0
    4.8794    2.7449   -1.4044 C   0  0  0  0  0  0  0  0  0  0  0  0
    6.8883    3.2620   -3.2704 C   0  0  0  0  0  0  0  0  0  0  0  0
    4.8650    3.9089   -2.1571 C   0  0  0  0  0  0  0  0  0  0  0  0
    5.8763    4.2096   -3.1246 C   0  0  0  0  0  0  0  0  0  0  0  0
    5.8791    5.3018   -3.8997 F   0  0  0  0  0  0  0  0  0  0  0  0
    3.7713    4.8967   -1.8680 C   0  0  0  0  0  0  0  0  0  0  0  0
    4.2488    5.9365   -0.8554 C   0  0  1  0  0  0  0  0  0  0  0  0
    5.3091    6.6392   -1.2749 F   0  0  0  0  0  0  0  0  0  0  0  0
    3.1530    6.9349   -0.4855 C   0  0  0  0  0  0  0  0  0  0  0  0
    2.8348    7.9062   -1.6211 C   0  0  0  0  0  0  0  0  0  0  0  0
    1.6917    8.8508   -1.2184 C   0  0  0  0  0  0  0  0  0  0  0  0
    1.2977    9.8082   -2.3421 C   0  0  0  0  0  0  0  0  0  0  0  0
  2  1  2  0
  3  2  1  0
  4  1  1  0
  5  4  2  0
  6  5  1  0
  6  3  1  0
  7  6  2  0
  8  5  1  0
  9  8  2  0
 10  2  1  0
 11  8  1  0
 12  4  1  0
 13 10  1  0
 14 11  1  0
 15 14  1  0
 16 15  2  0
 17 15  1  0
 18 16  1  0
 19 17  2  0
 20 19  1  0
 20 18  2  0
 21 20  1  0
 22 19  1  0
 23 22  1  0
 23 24  1  6
 25 23  1  0
 26 25  1  0
 27 26  1  0
 28 27  1  0
M  END
>  <SMILES>  (35) 
CCCCC(F)Cc1cc(OCC(=O)c2c(N)nc(SC)[nH]c2=O)ccc1F

>  <scaffold>  (35) 
pyrimidine

$$$$

     RDKit          3D

 14 16  0  0  0  0  0  0  0  0999 V2000
    0.0000    0.0000   -0.0000 N   0  0  0  0  0  0  0  0  0  0  0  0
    0.0000    0.0000    1.3241 C   0  0  0  0  0  0  0  0  0  0  0  0
    1.0351    0.0000    2.1377 N   0  0  0  0  0  0  0  0  0  0  0  0
    1.1904   -0.0000   -0.6139 C   0  0  0  0  0  0  0  0  0  0  0  0
    2.3758   -0.0000    0.1500 C   0  0  0  0  0  0  0  0  0  0  0  0
    2.2409   -0.0000    1.5456 C   0  0  0  0  0  0  0  0  0  0  0  0
    3.6959   -0.0536   -0.1498 O   0  0  0  0  0  0  0  0  0  0  0  0
    3.5335   -0.0539    1.9733 N   0  0  0  0  0  0  0  0  0  0  0  0
    4.3907   -0.0730    1.0221 C   0  0  0  0  0  0  0  0  0  0  0  0
    1.1421   -0.0483   -1.9515 N   0  0  0  0  0  0  0  0  0  0  0  0
    6.2675   -0.0717    1.0774 Br  0  0  0  0  0  0  0  0  0  0  0  0
    2.2910   -0.0007   -2.7816 C   0  0  0  0  0  0  0  0  0  0  0  0
    2.0267    0.5864   -4.1384 C   0  0  0  0  0  0  0  0  0  0  0  0
    2.1587   -0.8783   -3.9342 C   0  0  0  0  0  0  0  0  0  0  0  0
  2  1  2  0
  3  2  1  0
  4  1  1  0
  5  4  2  0
  6  5  1  0
  6  3  2  0
  7  5  1  0
  8  6  1  0
  9  8  2  0
  9  7  1  0
 10  4  1  0
 11  9  1  0
 12 10  1  0
 13 12  1  0
 14 13  1  0
 14 12  1  0
M  END
>  <SMILES>  (36) 
Brc1nc2ncnc(NC3CC3)c2o1

>  <scaffold>  (36) 
pyrimidine

$$$$

     RDKit          3D

 33 35  0  0  0  0  0  0  0  0999 V2000
   -0.0000    0.0000    0.0000 C   0  0  0  0  0  0  0  0  0  0  0  0
    0.0000    0.0000    1.4183 C   0  0  0  0  0  0  0  0  0  0  0  0
    1.2539   -0.0000    2.0276 C   0  0  0  0  0  0  0  0  0  0  0  0
    1.1474    0.1702   -0.6697 N   0  0  0  0  0  0  0  0  0  0  0  0
    2.2527    0.2245    0.0435 C   0  0  0  0  0  0  0  0  0  0  0  0
    2.3936    0.0746    1.3438 N   0  0  0  0  0  0  0  0  0  0  0  0
   -1.2209    0.1202    2.2088 C   0  0  0  0  0  0  0  0  0  0  0  0
   -1.5487   -0.6033    3.3159 C   0  0  0  0  0  0  0  0  0  0  0  0
   -2.1425    1.0418    1.8114 N   0  0  0  0  0  0  0  0  0  0  0  0
   -3.1380   -0.1352    3.8571 S   0  0  0  0  0  0  0  0  0  0  0  0
   -3.1899    1.0255    2.5459 C   0  0  0  0  0  0  0  0  0  0  0  0
   -0.8050   -1.7213    3.9493 C   0  0  0  0  0  0  0  0  0  0  0  0
   -1.1333   -0.1116   -0.7338 N   0  0  0  0  0  0  0  0  0  0  0  0
   -4.2674    1.8038    2.3270 N   0  0  0  0  0  0  0  0  0  0  0  0
   -4.1770    2.9451    1.4219 C   0  0  0  0  0  0  0  0  0  0  0  0
   -3.5440    4.1263    2.1187 C   0  0  0  0  0  0  0  0  0  0  0  0
   -2.2203    4.4158    1.9750 C   0  0  0  0  0  0  0  0  0  0  0  0
   -4.2706    4.9621    3.0047 C   0  0  0  0  0  0  0  0  0  0  0  0
   -1.7994    5.7833    2.9528 S   0  0  0  0  0  0  0  0  0  0  0  0
   -3.5175    5.9427    3.5772 C   0  0  0  0  0  0  0  0  0  0  0  0
   -1.2195    3.7513    1.1317 C   0  0  0  0  0  0  0  0  0  0  0  0
   -3.9609    7.0268    4.5035 C   0  0  0  0  0  0  0  0  0  0  0  0
   -2.8320    7.8630    5.1041 C   0  0  0  0  0  0  0  0  0  0  0  0
   -3.3487    9.0419    5.9273 C   0  0  0  0  0  0  0  0  0  0  0  0
   -2.2579    9.9422    6.5051 C   0  0  0  0  0  0  0  0  0  0  0  0
   -2.8273   11.1344    7.2725 C   0  0  0  0  0  0  0  0  0  0  0  0
   -1.6993   11.9707    7.8746 C   0  0  0  0  0  0  0  0  0  0  0  0
   -2.2150   13.2079    8.6079 C   0  0  0  0  0  0  0  0  0  0  0  0
   -1.0548   13.9782    9.2364 C   0  0  0  0  0  0  0  0  0  0  0  0
   -1.5262   15.2043   10.0338 C   0  0  0  0  0  0  0  0  0  0  0  0
   -0.3358   15.9064   10.6852 C   0  0  0  0  0  0  0  0  0  0  0  0
   -0.7459   17.1660   11.4466 C   0  0  0  0  0  0  0  0  0  0  0  0
    0.4487   17.7878   12.1113 C   0  0  0  0  0  0  0  0  0  0  0  0
  2  1  2  0
  3  2  1  0
  4  1  1  0
  5  4  2  0
  6  5  1  0
  6  3  2  0
  7  2  1  0
  8  7  2  0
  9  7  1  0
 10  8  1  0
 11 10  1  0
 11  9  2  0
 12  8  1  0
 13  1  1  0
 14 11  1  0
 15 14  1  0
 16 15  1  0
 17 16  2  0
 18 16  1  0
 19 17  1  0
 20 18  2  0
 20 19  1  0
 21 17  1  0
 22 20  1  0
 23 22  1  0
 24 23  1  0
 25 24  1  0
 26 25  1  0
 27 26  1  0
 28 27  1  0
 29 28  1  0
 30 29  1  0
 31 30  1  0
 32 31  1  0
 33 32  1  0
M  END
>  <SMILES>  (37) 
CCCCCCCCCCCCc1cc(CNc2nc(-c3cncnc3N)c(C)s2)c(C)s1

>  <scaffold>  (37) 
pyrimidine

$$$$

     RDKit          3D

 30 31  0  0  0  0  0  0  0  0999 V2000
    0.0000    0.0000    0.0000 N   0  0  0  0  0  0  0  0  0  0  0  0
    0.0000    0.0000    1.3317 C   0  0  0  0  0  0  0  0  0  0  0  0
    1.0423   -0.0000    2.1236 N   0  0  0  0  0  0  0  0  0  0  0  0
    1.1768   -0.0000   -0.6069 C   0  0  0  0  0  0  0  0  0  0  0  0
    2.3966    0.0599    0.0982 C   0  0  0  0  0  0  0  0  0  0  0  0
    2.1916    0.0615    1.4853 C   0  0  0  0  0  0  0  0  0  0  0  0
    4.0611    0.1459   -0.3762 S   0  0  0  0  0  0  0  0  0  0  0  0
    3.4911    0.1802    2.0814 C   0  0  0  0  0  0  0  0  0  0  0  0
    4.6901    0.2391    1.2466 C   0  0  0  0  0  0  0  0  0  0  0  0
    6.1489    0.2821    1.6010 C   0  0  0  0  0  0  0  0  0  0  0  0
    3.4973    0.1424    3.5572 C   0  0  0  0  0  0  0  0  0  0  0  0
    1.1285    0.0483   -1.9445 O   0  0  0  0  0  0  0  0  0  0  0  0
   -0.1003    0.0958   -2.6511 C   0  0  0  0  0  0  0  0  0  0  0  0
   -0.7782   -1.2732   -2.6761 C   0  0  0  0  0  0  0  0  0  0  0  0
   -2.0740   -1.2879   -3.4689 C   0  0  2  0  0  0  0  0  0  0  0  0
   -3.0097   -0.4503   -2.9011 F   0  0  0  0  0  0  0  0  0  0  0  0
   -2.6312   -2.7062   -3.5793 C   0  0  0  0  0  0  0  0  0  0  0  0
   -3.9151   -2.7836   -4.4202 C   0  0  0  0  0  0  0  0  0  0  0  0
   -4.3999   -4.2272   -4.5447 C   0  0  0  0  0  0  0  0  0  0  0  0
   -5.6455   -4.3650   -5.4186 C   0  0  0  0  0  0  0  0  0  0  0  0
   -6.0564   -5.8302   -5.5551 C   0  0  0  0  0  0  0  0  0  0  0  0
   -7.2742   -6.0284   -6.4710 C   0  0  0  0  0  0  0  0  0  0  0  0
   -7.6099   -7.5118   -6.6171 C   0  0  0  0  0  0  0  0  0  0  0  0
   -8.7821   -7.7664   -7.5635 C   0  0  0  0  0  0  0  0  0  0  0  0
   -9.0415   -9.2642   -7.7169 C   0  0  0  0  0  0  0  0  0  0  0  0
  -10.2409   -9.5712   -8.6123 C   0  0  0  0  0  0  0  0  0  0  0  0
  -10.4238  -11.0791   -8.7768 C   0  0  0  0  0  0  0  0  0  0  0  0
  -11.5794  -11.4388   -9.7093 C   0  0  0  0  0  0  0  0  0  0  0  0
  -11.6850  -12.9531   -9.8826 C   0  0  0  0  0  0  0  0  0  0  0  0
  -12.8615  -13.3684  -10.7646 C   0  0  0  0  0  0  0  0  0  0  0  0
  2  1  2  0
  3  2  1  0
  4  1  1  0
  5  4  2  0
  6  5  1  0
  6  3  2  0
  7  5  1  0
  8  6  1  0
  9  8  2  0
  9  7  1  0
 10  9  1  0
 11  8  1  0
 12  4  1  0
 13 12  1  0
 14 13  1  0
 15 14  1  0
 15 16  1  1
 17 15  1  0
 18 17  1  0
 19 18  1  0
 20 19  1  0
 21 20  1  0
 22 21  1  0
 23 22  1  0
 24 23  1  0
 25 24  1  0
 26 25  1  0
 27 26  1  0
 28 27  1  0
 29 28  1  0
 30 29  1  0
M  END
>  <SMILES>  (38) 
CCCCCCCCCCCCCCC(F)CCOc1ncnc2c(C)c(C)sc12

>  <scaffold>  (38) 
pyrimidine

$$$$

     RDKit          3D

 26 28  0  0  0  0  0  0  0  0999 V2000
   -0.0000    0.0000   -0.0000 N   0  0  0  0  0  0  0  0  0  0  0  0
    0.0000   -0.0000    1.4021 C   0  0  0  0  0  0  0  0  0  0  0  0
    1.1713   -0.0000    2.0197 N   0  0  0  0  0  0  0  0  0  0  0  0
    1.1381    0.2851   -0.6774 C   0  0  0  0  0  0  0  0  0  0  0  0
    2.3498    0.4648   -0.0457 C   0  0  0  0  0  0  0  0  0  0  0  0
    2.2640    0.1436    1.3583 C   0  0  0  0  0  0  0  0  0  0  0  0
    3.4175    0.0559    2.0485 N   0  0  0  0  0  0  0  0  0  0  0  0
   -1.0571   -0.0519    2.0132 O   0  0  0  0  0  0  0  0  0  0  0  0
    3.5512    1.0644   -0.6992 C   0  0  0  0  0  0  0  0  0  0  0  0
    3.3776   -0.0513    3.4785 C   0  0  0  0  0  0  0  0  0  0  0  0
    3.5797    1.2699    4.1635 C   0  0  0  0  0  0  0  0  0  0  0  0
    3.5510    2.5162    3.6332 C   0  0  0  0  0  0  0  0  0  0  0  0
    3.8537    1.2891    5.8847 S   0  0  0  0  0  0  0  0  0  0  0  0
    3.7357    3.5075    4.6306 C   0  0  0  0  0  0  0  0  0  0  0  0
    3.9006    3.0207    5.8358 C   0  0  0  0  0  0  0  0  0  0  0  0
    4.0680    3.7667    7.1086 C   0  0  0  0  0  0  0  0  0  0  0  0
    2.8165    3.6339    7.9748 C   0  0  0  0  0  0  0  0  0  0  0  0
    1.7449    3.2757    7.5667 O   0  0  0  0  0  0  0  0  0  0  0  0
    3.0412    3.9942    9.2370 O   0  0  0  0  0  0  0  0  0  0  0  0
    2.0742    3.9139   10.2492 C   0  0  0  0  0  0  0  0  0  0  0  0
    1.9475    5.0052   11.1075 C   0  0  0  0  0  0  0  0  0  0  0  0
    1.3590    2.7465   10.4660 C   0  0  0  0  0  0  0  0  0  0  0  0
    1.0498    4.9519   12.1416 C   0  0  0  0  0  0  0  0  0  0  0  0
    0.4538    2.6995   11.5043 C   0  0  0  0  0  0  0  0  0  0  0  0
    0.2386    3.8458   12.3903 C   0  0  0  0  0  0  0  0  0  0  0  0
   -0.6424    3.9309   13.4057 O   0  0  0  0  0  0  0  0  0  0  0  0
  2  1  1  0
  3  2  1  0
  4  1  1  0
  5  4  2  0
  6  5  1  0
  6  3  2  0
  7  6  1  0
  8  2  2  0
  9  5  1  0
 10  7  1  0
 11 10  1  0
 12 11  2  0
 13 11  1  0
 14 12  1  0
 15 14  2  0
 15 13  1  0
 16 15  1  0
 17 16  1  0
 18 17  2  0
 19 17  1  0
 20 19  1  0
 21 20  2  0
 22 20  1  0
 23 21  1  0
 24 22  2  0
 25 24  1  0
 25 23  2  0
 26 25  1  0
M  END
>  <SMILES>  (39) 
Cc1c[nH]c(=O)nc1NCc1ccc(CC(=O)Oc2ccc(O)cc2)s1

>  <scaffold>  (39) 
pyrimidine

$$$$

     RDKit          3D

 26 29  0  0  0  0  0  0  0  0999 V2000
   -0.0000   -0.0000    0.0000 N   0  0  0  0  0  0  0  0  0  0  0  0
    0.0000    0.0000    1.3548 C   0  0  0  0  0  0  0  0  0  0  0  0
    1.0739    0.0000    2.0901 N   0  0  0  0  0  0  0  0  0  0  0  0
    1.1634   -0.0000   -0.6000 C   0  0  0  0  0  0  0  0  0  0  0  0
    2.3902   -0.0603    0.1092 C   0  0  0  0  0  0  0  0  0  0  0  0
    2.1829   -0.0619    1.5122 C   0  0  0  0  0  0  0  0  0  0  0  0
    3.6816   -0.1212   -0.4124 C   0  0  0  0  0  0  0  0  0  0  0  0
    3.3258   -0.0645    2.3244 C   0  0  0  0  0  0  0  0  0  0  0  0
    4.8053   -0.1229    0.3857 C   0  0  0  0  0  0  0  0  0  0  0  0
    4.5912   -0.1233    1.8226 C   0  0  0  0  0  0  0  0  0  0  0  0
   -1.2135   -0.0000    1.8456 O   0  0  0  0  0  0  0  0  0  0  0  0
    6.0043   -0.2379   -0.2346 O   0  0  0  0  0  0  0  0  0  0  0  0
   -1.4190   -0.0551    3.2234 C   0  0  0  0  0  0  0  0  0  0  0  0
   -2.3923    0.8125    3.7170 C   0  0  0  0  0  0  0  0  0  0  0  0
   -0.7735   -0.9623    4.0491 C   0  0  0  0  0  0  0  0  0  0  0  0
   -2.6664    0.7579    5.0747 C   0  0  0  0  0  0  0  0  0  0  0  0
   -1.0459   -1.0116    5.3992 C   0  0  0  0  0  0  0  0  0  0  0  0
   -1.9799   -0.1370    5.8805 C   0  0  0  0  0  0  0  0  0  0  0  0
   -3.1595    1.7377    2.8164 C   0  0  0  0  0  0  0  0  0  0  0  0
    7.1956    0.1310    0.3705 C   0  0  0  0  0  0  0  0  0  0  0  0
    7.3292    1.3321    1.0331 C   0  0  0  0  0  0  0  0  0  0  0  0
    8.3038   -0.6958    0.1918 C   0  0  0  0  0  0  0  0  0  0  0  0
    8.5547    1.6793    1.5801 C   0  0  0  0  0  0  0  0  0  0  0  0
    9.5215   -0.3442    0.7333 C   0  0  0  0  0  0  0  0  0  0  0  0
    9.6618    0.8489    1.4121 C   0  0  0  0  0  0  0  0  0  0  0  0
   10.9029    1.1025    1.8472 O   0  0  0  0  0  0  0  0  0  0  0  0
  2  1  2  0
  3  2  1  0
  4  1  1  0
  5  4  2  0
  6  5  1  0
  6  3  2  0
  7  5  1  0
  8  6  1  0
  9  7  2  0
 10  9  1  0
 10  8  2  0
 11  2  1  0
 12  9  1  0
 13 11  1  0
 14 13  2  0
 15 13  1  0
 16 14  1  0
 17 15  2  0
 18 17  1  0
 18 16  2  0
 19 14  1  0
 20 12  1  0
 21 20  2  0
 22 20  1  0
 23 21  1  0
 24 22  2  0
 25 24  1  0
 25 23  2  0
 26 25  1  0
M  END
>  <SMILES>  (40) 
Cc1ccccc1Oc1ncc2cc(Oc3ccc(O)cc3)ccc2n1

>  <scaffold>  (40) 
pyrimidine

$$$$

     RDKit          3D

 19 20  0  0  0  0  0  0  0  0999 V2000
    0.0000   -0.0000   -0.0000 N   0  0  0  0  0  0  0  0  0  0  0  0
    0.0000    0.0000    1.4021 C   0  0  0  0  0  0  0  0  0  0  0  0
    1.1609    0.0000    2.0389 N   0  0  0  0  0  0  0  0  0  0  0  0
    1.1169   -0.2222   -0.7338 C   0  0  0  0  0  0  0  0  0  0  0  0
    2.3360   -0.3422   -0.1021 C   0  0  0  0  0  0  0  0  0  0  0  0
    2.3015   -0.0407    1.3169 C   0  0  0  0  0  0  0  0  0  0  0  0
   -1.4237    0.0699    2.2251 S   0  0  0  0  0  0  0  0  0  0  0  0
    0.9263   -0.3495   -2.2181 C   0  0  0  0  0  0  0  0  0  0  0  0
    3.4424    0.1024    2.0038 N   0  0  0  0  0  0  0  0  0  0  0  0
    3.5401   -0.7966   -0.8253 C   0  0  0  0  0  0  0  0  0  0  0  0
    3.7683   -0.4473   -1.9814 O   0  0  0  0  0  0  0  0  0  0  0  0
    3.4602    0.3524    3.4331 C   0  0  2  0  0  0  0  0  0  0  0  0
    4.3651   -1.6551   -0.1789 N   0  0  0  0  0  0  0  0  0  0  0  0
    4.4391    1.4687    3.7936 C   0  0  0  0  0  0  0  0  0  0  0  0
    3.8249   -0.8953    4.1854 C   0  0  0  0  0  0  0  0  0  0  0  0
    2.9884   -1.8877    4.5999 C   0  0  0  0  0  0  0  0  0  0  0  0
    5.4784   -1.2221    4.5885 S   0  0  0  0  0  0  0  0  0  0  0  0
    3.6698   -2.9550    5.2388 C   0  0  0  0  0  0  0  0  0  0  0  0
    5.0284   -2.7437    5.3095 C   0  0  0  0  0  0  0  0  0  0  0  0
  2  1  1  0
  3  2  1  0
  4  1  1  0
  5  4  2  0
  6  5  1  0
  6  3  2  0
  7  2  2  0
  8  4  1  0
  9  6  1  0
 10  5  1  0
 11 10  2  0
 12  9  1  0
 13 10  1  0
 12 14  1  6
 15 12  1  0
 16 15  2  0
 17 15  1  0
 18 16  1  0
 19 18  2  0
 19 17  1  0
M  END
>  <SMILES>  (41) 
Cc1[nH]c(=S)nc(NC(C)c2cccs2)c1C(N)=O

>  <scaffold>  (41) 
pyrimidine

$$$$

     RDKit          3D

 19 20  0  0  0  0  0  0  0  0999 V2000
   -0.0000   -0.0000   -0.0000 C   0  0  0  0  0  0  0  0  0  0  0  0
    0.0000    0.0000    1.4102 C   0  0  0  0  0  0  0  0  0  0  0  0
    1.2611    0.0000    2.0230 C   0  0  0  0  0  0  0  0  0  0  0  0
    1.1585    0.0569   -0.6697 N   0  0  0  0  0  0  0  0  0  0  0  0
    2.3118    0.0569   -0.0038 C   0  0  0  0  0  0  0  0  0  0  0  0
    2.3771    0.0020    1.3251 N   0  0  0  0  0  0  0  0  0  0  0  0
   -1.2552   -0.0000    2.2190 C   0  0  0  0  0  0  0  0  0  0  0  0
    1.4017    0.0582    3.5085 C   0  0  0  0  0  0  0  0  0  0  0  0
    3.4499    0.1638   -0.7164 N   0  0  0  0  0  0  0  0  0  0  0  0
   -1.1388    0.0000   -0.7338 N   0  0  0  0  0  0  0  0  0  0  0  0
    4.7769    0.0219   -0.1466 C   0  0  0  0  0  0  0  0  0  0  0  0
   -1.1944   -0.1343   -2.1528 C   0  0  0  0  0  0  0  0  0  0  0  0
   -1.6137   -1.5460   -2.5599 C   0  0  0  0  0  0  0  0  0  0  0  0
    5.2369   -1.4149   -0.2224 C   0  0  0  0  0  0  0  0  0  0  0  0
    4.7014   -2.3718    0.6385 C   0  0  0  0  0  0  0  0  0  0  0  0
    6.1592   -1.8587   -1.1571 C   0  0  0  0  0  0  0  0  0  0  0  0
    5.0578   -3.7179    0.5727 C   0  0  0  0  0  0  0  0  0  0  0  0
    6.5159   -3.2050   -1.2202 C   0  0  0  0  0  0  0  0  0  0  0  0
    5.9202   -4.0945   -0.4127 C   0  0  0  0  0  0  0  0  0  0  0  0
  2  1  2  0
  3  2  1  0
  4  1  1  0
  5  4  2  0
  6  5  1  0
  6  3  2  0
  7  2  1  0
  8  3  1  0
  9  5  1  0
 10  1  1  0
 11  9  1  0
 12 10  1  0
 13 12  1  0
 14 11  1  0
 15 14  2  0
 16 14  1  0
 17 15  1  0
 18 16  2  0
 19 17  2  0
 19 18  1  0
M  END
>  <SMILES>  (42) 
CCNc1nc(NCc2ccccc2)nc(C)c1C

>  <scaffold>  (42) 
pyrimidine

$$$$

     RDKit          3D

 32 34  0  0  0  0  0  0  0  0999 V2000
    0.0000    0.0000   -0.0000 C   0  0  0  0  0  0  0  0  0  0  0  0
    0.0000    0.0000    1.3862 C   0  0  0  0  0  0  0  0  0  0  0  0
    1.2468   -0.0000    1.9920 C   0  0  0  0  0  0  0  0  0  0  0  0
    1.1067    0.0000   -0.7131 N   0  0  0  0  0  0  0  0  0  0  0  0
    2.2325    0.0000    0.0124 C   0  0  0  0  0  0  0  0  0  0  0  0
    2.3613   -0.0000    1.3455 N   0  0  0  0  0  0  0  0  0  0  0  0
    3.3897    0.0486   -0.6755 N   0  0  0  0  0  0  0  0  0  0  0  0
    3.3892    0.0937   -2.0064 N   0  0  0  0  0  0  0  0  0  0  0  0
    4.5094    0.1851   -2.6177 C   0  0  0  0  0  0  0  0  0  0  0  0
    4.5572    0.2885   -4.0477 C   0  0  0  0  0  0  0  0  0  0  0  0
    5.7913    0.4351   -4.6618 C   0  0  0  0  0  0  0  0  0  0  0  0
    3.4147    0.2941   -4.8186 C   0  0  0  0  0  0  0  0  0  0  0  0
    5.8836    0.5895   -6.0443 C   0  0  0  0  0  0  0  0  0  0  0  0
    3.5082    0.4448   -6.1853 C   0  0  0  0  0  0  0  0  0  0  0  0
    4.7299    0.5370   -6.8108 C   0  0  0  0  0  0  0  0  0  0  0  0
    7.1375    0.7761   -6.5221 O   0  0  0  0  0  0  0  0  0  0  0  0
    7.3707    0.8917   -7.9246 C   0  0  1  0  0  0  0  0  0  0  0  0
    8.7403    1.5354   -8.1346 C   0  0  0  0  0  0  0  0  0  0  0  0
    9.0896    1.7712   -9.5941 C   0  0  0  0  0  0  0  0  0  0  0  0
    7.3084   -0.4679   -8.6188 C   0  0  0  0  0  0  0  0  0  0  0  0
    8.3390   -1.4566   -8.0757 C   0  0  0  0  0  0  0  0  0  0  0  0
    8.3544   -2.7996   -8.7667 C   0  0  0  0  0  0  0  0  0  0  0  0
    9.4949   -3.3010   -9.3923 C   0  0  0  0  0  0  0  0  0  0  0  0
    7.1944   -3.5584   -8.7594 C   0  0  0  0  0  0  0  0  0  0  0  0
    9.5705   -4.5398   -9.9915 C   0  0  0  0  0  0  0  0  0  0  0  0
    7.2704   -4.7969   -9.3593 C   0  0  0  0  0  0  0  0  0  0  0  0
    8.4390   -5.3542   -9.9777 C   0  0  0  0  0  0  0  0  0  0  0  0
    8.6478   -6.5503  -10.5429 O   0  0  0  0  0  0  0  0  0  0  0  0
    7.5451   -7.4286  -10.5074 C   0  0  0  0  0  0  0  0  0  0  0  0
    8.0823   -8.7044  -11.1540 C   0  0  0  0  0  0  0  0  0  0  0  0
    8.2372   -8.5511  -12.6663 C   0  0  0  0  0  0  0  0  0  0  0  0
    8.7238   -9.8677  -13.2697 C   0  0  0  0  0  0  0  0  0  0  0  0
  2  1  2  0
  3  2  1  0
  4  1  1  0
  5  4  2  0
  6  5  1  0
  6  3  2  0
  7  5  1  0
  8  7  1  0
  9  8  2  0
 10  9  1  0
 11 10  2  0
 12 10  1  0
 13 11  1  0
 14 12  2  0
 15 14  1  0
 15 13  2  0
 16 13  1  0
 17 16  1  0
 17 18  1  1
 19 18  1  0
 20 17  1  0
 21 20  1  0
 22 21  1  0
 23 22  2  0
 24 22  1  0
 25 23  1  0
 26 24  2  0
 27 26  1  0
 27 25  2  0
 28 27  1  0
 29 28  1  0
 30 29  1  0
 31 30  1  0
 32 31  1  0
M  END
>  <SMILES>  (43) 
CCCCOc1ccc(CCC(CC)Oc2cccc(C=NNc3ncccn3)c2)cc1

>  <scaffold>  (43) 
pyrimidine

$$$$

     RDKit          3D

 18 19  0  0  0  0  0  0  0  0999 V2000
    0.0000    0.0000    0.0000 N   0  0  0  0  0  0  0  0  0  0  0  0
    0.0000    0.0000    1.3317 C   0  0  0  0  0  0  0  0  0  0  0  0
    1.0292    0.0000    2.1406 N   0  0  0  0  0  0  0  0  0  0  0  0
    1.1519   -0.0566   -0.6658 C   0  0  0  0  0  0  0  0  0  0  0  0
    2.3291   -0.1144    0.0936 C   0  0  0  0  0  0  0  0  0  0  0  0
    2.1900   -0.0507    1.5118 C   0  0  0  0  0  0  0  0  0  0  0  0
    3.6651   -0.1267   -0.1308 N   0  0  0  0  0  0  0  0  0  0  0  0
    3.4045   -0.0665    2.0578 N   0  0  0  0  0  0  0  0  0  0  0  0
    4.3064   -0.1419    0.9509 N   0  0  0  0  0  0  0  0  0  0  0  0
    1.0932    0.0082   -2.3769 S   0  0  0  0  0  0  0  0  0  0  0  0
   -0.6716    0.2122   -2.7448 C   0  0  0  0  0  0  0  0  0  0  0  0
    3.8396   -0.0795    3.4162 C   0  0  0  0  0  0  0  0  0  0  0  0
    3.3073   -1.3389    4.0981 C   0  0  0  0  0  0  0  0  0  0  0  0
    3.8785   -2.6243    3.5017 C   0  0  0  0  0  0  0  0  0  0  0  0
    3.2746   -3.8527    4.1805 C   0  0  0  0  0  0  0  0  0  0  0  0
    3.8545   -5.1656    3.6566 C   0  0  0  0  0  0  0  0  0  0  0  0
    3.1802   -6.3617    4.3267 C   0  0  0  0  0  0  0  0  0  0  0  0
    3.7487   -7.6309    3.7374 C   0  0  0  0  0  0  0  0  0  0  0  0
  2  1  2  0
  3  2  1  0
  4  1  1  0
  5  4  2  0
  6  5  1  0
  6  3  2  0
  7  5  1  0
  8  6  1  0
  9  8  1  0
  9  7  2  0
 10  4  1  0
 11 10  1  0
 12  8  1  0
 13 12  1  0
 14 13  1  0
 15 14  1  0
 16 15  1  0
 17 16  1  0
 18 17  1  0
M  END
>  <SMILES>  (44) 
CCCCCCCn1nnc2c(SC)ncnc21

>  <scaffold>  (44) 
pyrimidine

$$$$

     RDKit          3D

 24 26  0  0  0  0  0  0  0  0999 V2000
    0.0000   -0.0000   -0.0000 C   0  0  0  0  0  0  0  0  0  0  0  0
    0.0000   -0.0000    1.3941 C   0  0  0  0  0  0  0  0  0  0  0  0
    1.2366   -0.0000    2.0204 C   0  0  0  0  0  0  0  0  0  0  0  0
    1.1067   -0.0000   -0.7131 N   0  0  0  0  0  0  0  0  0  0  0  0
    2.2261   -0.0000    0.0082 C   0  0  0  0  0  0  0  0  0  0  0  0
    2.3556   -0.0000    1.3490 N   0  0  0  0  0  0  0  0  0  0  0  0
    1.2849   -0.0483    3.3580 O   0  0  0  0  0  0  0  0  0  0  0  0
    3.3832    0.0486   -0.6796 N   0  0  0  0  0  0  0  0  0  0  0  0
    3.5122    0.0968   -2.0196 N   0  0  0  0  0  0  0  0  0  0  0  0
    4.6324    0.1882   -2.6308 C   0  0  0  0  0  0  0  0  0  0  0  0
    2.4964   -0.0004    4.0298 C   0  0  0  0  0  0  0  0  0  0  0  0
    3.5108    0.8763    3.6778 C   0  0  0  0  0  0  0  0  0  0  0  0
    2.6387   -0.8420    5.1220 C   0  0  0  0  0  0  0  0  0  0  0  0
    4.6865    0.9219    4.4107 C   0  0  0  0  0  0  0  0  0  0  0  0
    3.8076   -0.7936    5.8506 C   0  0  0  0  0  0  0  0  0  0  0  0
    4.8203    0.1196    5.5429 C   0  0  0  0  0  0  0  0  0  0  0  0
    4.8244    0.1911   -4.0525 C   0  0  0  0  0  0  0  0  0  0  0  0
    6.0559    0.3423   -4.6705 C   0  0  0  0  0  0  0  0  0  0  0  0
    3.7196    0.0246   -4.8863 C   0  0  0  0  0  0  0  0  0  0  0  0
    6.2968    0.3020   -6.0350 C   0  0  0  0  0  0  0  0  0  0  0  0
    3.9608   -0.0152   -6.2508 C   0  0  0  0  0  0  0  0  0  0  0  0
    5.1452    0.1450   -6.8049 C   0  0  0  0  0  0  0  0  0  0  0  0
    5.7054    1.7135    4.0811 O   0  0  0  0  0  0  0  0  0  0  0  0
    7.4533    0.3825   -6.7509 O   0  0  0  0  0  0  0  0  0  0  0  0
  2  1  2  0
  3  2  1  0
  4  1  1  0
  5  4  2  0
  6  5  1  0
  6  3  2  0
  7  3  1  0
  8  5  1  0
  9  8  1  0
 10  9  2  0
 11  7  1  0
 12 11  2  0
 13 11  1  0
 14 12  1  0
 15 13  2  0
 16 14  2  0
 16 15  1  0
 17 10  1  0
 18 17  2  0
 19 17  1  0
 20 18  1  0
 21 19  2  0
 22 21  1  0
 22 20  2  0
 23 14  1  0
 24 20  1  0
M  END
>  <SMILES>  (45) 
Oc1cccc(C=NNc2nccc(Oc3cccc(O)c3)n2)c1

>  <scaffold>  (45) 
pyrimidine

$$$$

     RDKit          3D

 25 28  0  0  0  0  0  0  0  0999 V2000
   -0.0000   -0.0000    0.0000 C   0  0  0  0  0  0  0  0  0  0  0  0
    0.0000   -0.0000    1.4183 C   0  0  0  0  0  0  0  0  0  0  0  0
    1.2611   -0.0000    2.0311 C   0  0  0  0  0  0  0  0  0  0  0  0
    1.1836    0.0000   -0.6104 N   0  0  0  0  0  0  0  0  0  0  0  0
    2.2966   -0.0000    0.1069 C   0  0  0  0  0  0  0  0  0  0  0  0
    2.4172   -0.0000    1.4179 N   0  0  0  0  0  0  0  0  0  0  0  0
   -1.3528    0.0000    2.5014 S   0  0  0  0  0  0  0  0  0  0  0  0
   -0.1982    0.0648    3.7921 C   0  0  0  0  0  0  0  0  0  0  0  0
    1.1334    0.0345    3.5052 C   0  0  0  0  0  0  0  0  0  0  0  0
    2.1994    0.0182    4.3032 O   0  0  0  0  0  0  0  0  0  0  0  0
   -1.2041    0.0000   -0.6209 N   0  0  0  0  0  0  0  0  0  0  0  0
   -1.4817    0.0552   -1.9860 C   0  0  0  0  0  0  0  0  0  0  0  0
   -2.8413    0.0926   -2.2924 C   0  0  0  0  0  0  0  0  0  0  0  0
   -0.5155    0.1226   -2.9776 C   0  0  0  0  0  0  0  0  0  0  0  0
   -3.2336    0.2003   -3.5846 C   0  0  0  0  0  0  0  0  0  0  0  0
   -0.9101    0.2247   -4.2696 C   0  0  0  0  0  0  0  0  0  0  0  0
   -2.3365    0.2775   -4.6489 C   0  0  0  0  0  0  0  0  0  0  0  0
   -2.6831    0.4354   -5.9571 N   0  0  0  0  0  0  0  0  0  0  0  0
   -4.0372    0.3482   -6.4713 C   0  0  0  0  0  0  0  0  0  0  0  0
   -4.5957   -1.0603   -6.3615 C   0  0  0  0  0  0  0  0  0  0  0  0
   -5.7715   -1.3031   -5.6687 C   0  0  0  0  0  0  0  0  0  0  0  0
   -3.9343   -2.1304   -6.9436 C   0  0  0  0  0  0  0  0  0  0  0  0
   -6.2158   -2.6110   -5.5535 C   0  0  0  0  0  0  0  0  0  0  0  0
   -4.4277   -3.4170   -6.9124 C   0  0  0  0  0  0  0  0  0  0  0  0
   -5.5569   -3.7062   -6.0901 C   0  0  0  0  0  0  0  0  0  0  0  0
  2  1  1  0
  3  2  2  0
  4  1  2  0
  5  4  1  0
  6  5  2  0
  6  3  1  0
  7  2  1  0
  8  7  1  0
  9  8  2  0
  9  3  1  0
 10  9  1  0
 11  1  1  0
 12 11  1  0
 13 12  2  0
 14 12  1  0
 15 13  1  0
 16 14  2  0
 17 16  1  0
 17 15  2  0
 18 17  1  0
 19 18  1  0
 20 19  1  0
 21 20  2  0
 22 20  1  0
 23 21  1  0
 24 22  2  0
 25 23  2  0
 25 24  1  0
M  END
>  <SMILES>  (46) 
Oc1csc2c(Nc3ccc(NCc4ccccc4)cc3)ncnc12

>  <scaffold>  (46) 
pyrimidine

$$$$

     RDKit          3D

 29 32  0  0  0  0  0  0  0  0999 V2000
   -0.0000    0.0000    0.0000 C   0  0  0  0  0  0  0  0  0  0  0  0
   -0.0000    0.0000    1.4102 C   0  0  0  0  0  0  0  0  0  0  0  0
    1.2684   -0.0000    2.0265 C   0  0  0  0  0  0  0  0  0  0  0  0
    1.1836    0.0000   -0.6104 N   0  0  0  0  0  0  0  0  0  0  0  0
    2.3094    0.0000    0.1151 C   0  0  0  0  0  0  0  0  0  0  0  0
    2.4321   -0.0000    1.4488 N   0  0  0  0  0  0  0  0  0  0  0  0
   -0.9622   -0.0504    2.3735 N   0  0  0  0  0  0  0  0  0  0  0  0
   -0.3419   -0.0667    3.4674 N   0  0  0  0  0  0  0  0  0  0  0  0
    1.0081    0.0185    3.3932 N   0  0  0  0  0  0  0  0  0  0  0  0
    3.4423    0.0525   -0.6118 N   0  0  0  0  0  0  0  0  0  0  0  0
   -1.1323    0.0000   -0.7296 N   0  0  0  0  0  0  0  0  0  0  0  0
   -2.4910    0.0667   -0.2487 C   0  0  0  0  0  0  0  0  0  0  0  0
    1.9523   -0.0345    4.4719 C   0  0  0  0  0  0  0  0  0  0  0  0
    3.5799   -0.0183   -2.0463 C   0  0  0  0  0  0  0  0  0  0  0  0
    4.0239   -1.3879   -2.5030 C   0  0  0  0  0  0  0  0  0  0  0  0
    5.2630   -1.6041   -3.0665 C   0  0  0  0  0  0  0  0  0  0  0  0
    3.1794   -2.4679   -2.2983 C   0  0  0  0  0  0  0  0  0  0  0  0
    5.6451   -2.8874   -3.4251 C   0  0  0  0  0  0  0  0  0  0  0  0
    3.5558   -3.7216   -2.6474 C   0  0  0  0  0  0  0  0  0  0  0  0
    4.8237   -3.9989   -3.2420 C   0  0  0  0  0  0  0  0  0  0  0  0
    2.4314   -1.4540    4.6641 C   0  0  0  0  0  0  0  0  0  0  0  0
    1.6062   -2.4051    5.2624 C   0  0  0  0  0  0  0  0  0  0  0  0
    3.7153   -1.8190    4.2904 C   0  0  0  0  0  0  0  0  0  0  0  0
    1.9810   -3.7228    5.4140 C   0  0  0  0  0  0  0  0  0  0  0  0
    4.0890   -3.1291    4.4386 C   0  0  0  0  0  0  0  0  0  0  0  0
    3.2136   -4.1475    4.9668 C   0  0  0  0  0  0  0  0  0  0  0  0
    3.7639   -5.7762    5.1854 Cl  0  0  0  0  0  0  0  0  0  0  0  0
    5.1728   -5.2754   -3.5318 O   0  0  0  0  0  0  0  0  0  0  0  0
    6.4686   -5.5048   -4.0607 C   0  0  0  0  0  0  0  0  0  0  0  0
  2  1  2  0
  3  2  1  0
  4  1  1  0
  5  4  2  0
  6  5  1  0
  6  3  2  0
  7  2  1  0
  8  7  2  0
  9  8  1  0
  9  3  1  0
 10  5  1  0
 11  1  1  0
 12 11  1  0
 13  9  1  0
 14 10  1  0
 15 14  1  0
 16 15  2  0
 17 15  1  0
 18 16  1  0
 19 17  2  0
 20 19  1  0
 20 18  2  0
 21 13  1  0
 22 21  2  0
 23 21  1  0
 24 22  1  0
 25 23  2  0
 26 25  1  0
 26 24  2  0
 27 26  1  0
 28 20  1  0
 29 28  1  0
M  END
>  <SMILES>  (47) 
CNc1nc(NCc2ccc(OC)cc2)nc2c1nnn2Cc1ccc(Cl)cc1

>  <scaffold>  (47) 
pyrimidine

$$$$

     RDKit          3D

 24 25  0  0  0  0  0  0  0  0999 V2000
    0.0000    0.0000   -0.0000 N   0  0  0  0  0  0  0  0  0  0  0  0
   -0.0000   -0.0000    1.3241 C   0  0  0  0  0  0  0  0  0  0  0  0
    1.0801   -0.0000    2.0900 N   0  0  0  0  0  0  0  0  0  0  0  0
    1.1836    0.0000   -0.6104 C   0  0  0  0  0  0  0  0  0  0  0  0
    2.3895   -0.0592    0.0867 C   0  0  0  0  0  0  0  0  0  0  0  0
    2.2547   -0.1184    1.4730 C   0  0  0  0  0  0  0  0  0  0  0  0
    1.0531    0.0541   -1.9893 N   0  0  0  0  0  0  0  0  0  0  0  0
   -1.2161    0.0597    1.8822 O   0  0  0  0  0  0  0  0  0  0  0  0
    2.0697    0.1223   -2.8939 C   0  0  0  0  0  0  0  0  0  0  0  0
    3.2529    0.1472   -2.6507 O   0  0  0  0  0  0  0  0  0  0  0  0
    1.4846    0.2082   -4.0956 O   0  0  0  0  0  0  0  0  0  0  0  0
    3.3929   -0.2254    2.1855 O   0  0  0  0  0  0  0  0  0  0  0  0
    2.3965    0.2336   -5.1921 C   0  0  0  0  0  0  0  0  0  0  0  0
    3.4404    0.0143    3.5260 C   0  0  0  0  0  0  0  0  0  0  0  0
    2.4956    0.7419    4.1015 N   0  0  0  0  0  0  0  0  0  0  0  0
    4.5512   -0.5022    4.1575 C   0  0  0  0  0  0  0  0  0  0  0  0
    2.6714    0.9464    5.3748 C   0  0  0  0  0  0  0  0  0  0  0  0
    4.7405   -0.2763    5.5201 C   0  0  0  0  0  0  0  0  0  0  0  0
    3.7089    0.5012    6.1791 C   0  0  0  0  0  0  0  0  0  0  0  0
    2.8422   -1.1752   -5.5807 C   0  0  0  0  0  0  0  0  0  0  0  0
    1.6729   -2.0247   -6.0761 C   0  0  0  0  0  0  0  0  0  0  0  0
    3.8575    0.7545    7.8870 Cl  0  0  0  0  0  0  0  0  0  0  0  0
    2.0754   -3.4272   -6.5294 C   0  0  0  0  0  0  0  0  0  0  0  0
    0.8650   -4.2527   -6.9629 C   0  0  0  0  0  0  0  0  0  0  0  0
  2  1  2  0
  3  2  1  0
  4  1  1  0
  5  4  2  0
  6  5  1  0
  6  3  2  0
  7  4  1  0
  8  2  1  0
  9  7  1  0
 10  9  2  0
 11  9  1  0
 12  6  1  0
 13 11  1  0
 14 12  1  0
 15 14  2  0
 16 14  1  0
 17 15  1  0
 18 16  2  0
 19 17  2  0
 19 18  1  0
 20 13  1  0
 21 20  1  0
 22 19  1  0
 23 21  1  0
 24 23  1  0
M  END
>  <SMILES>  (48) 
CCCCCOC(=O)Nc1cc(Oc2ccc(Cl)cn2)nc(O)n1

>  <scaffold>  (48) 
pyrimidine

$$$$

     RDKit          3D

 19 20  0  0  0  0  0  0  0  0999 V2000
   -0.0000   -0.0000   -0.0000 C   0  0  0  0  0  0  0  0  0  0  0  0
   -0.0000    0.0000    1.3704 C   0  0  0  0  0  0  0  0  0  0  0  0
    1.2028    0.0000    2.1371 C   0  0  0  0  0  0  0  0  0  0  0  0
    1.1323   -0.0000   -0.7296 N   0  0  0  0  0  0  0  0  0  0  0  0
    2.2646   -0.0556   -0.0751 C   0  0  0  0  0  0  0  0  0  0  0  0
    2.3311   -0.0541    1.2858 N   0  0  0  0  0  0  0  0  0  0  0  0
    3.3742   -0.1021   -0.8510 N   0  0  0  0  0  0  0  0  0  0  0  0
    1.3830    0.0483    3.3448 O   0  0  0  0  0  0  0  0  0  0  0  0
   -1.1388   -0.0000   -0.7338 N   0  0  0  0  0  0  0  0  0  0  0  0
    4.5921   -0.1088   -0.2938 N   0  0  0  0  0  0  0  0  0  0  0  0
    5.6131   -0.1072   -1.0648 C   0  0  0  0  0  0  0  0  0  0  0  0
    6.8869   -0.1660   -0.4256 C   0  0  0  0  0  0  0  0  0  0  0  0
    8.1377   -0.1223   -1.0214 C   0  0  0  0  0  0  0  0  0  0  0  0
    7.0521   -0.2802    0.9300 N   0  0  0  0  0  0  0  0  0  0  0  0
    9.0292   -0.2692    0.0404 C   0  0  0  0  0  0  0  0  0  0  0  0
    8.3747   -0.3631    1.2115 C   0  0  0  0  0  0  0  0  0  0  0  0
   10.3758   -0.2491    0.0656 O   0  0  0  0  0  0  0  0  0  0  0  0
   11.0399   -0.1766   -1.1764 C   0  0  0  0  0  0  0  0  0  0  0  0
   11.0734   -1.5231   -1.8975 C   0  0  0  0  0  0  0  0  0  0  0  0
  2  1  2  0
  3  2  1  0
  4  1  1  0
  5  4  2  0
  6  5  1  0
  6  3  1  0
  7  5  1  0
  8  3  2  0
  9  1  1  0
 10  7  1  0
 11 10  2  0
 12 11  1  0
 13 12  2  0
 14 12  1  0
 15 13  1  0
 16 15  2  0
 16 14  1  0
 17 15  1  0
 18 17  1  0
 19 18  1  0
M  END
>  <SMILES>  (49) 
CCOc1c[nH]c(C=NNc2nc(N)cc(=O)[nH]2)c1

>  <scaffold>  (49) 
pyrimidine

$$$$

     RDKit          3D

 23 24  0  0  0  0  0  0  0  0999 V2000
   -0.0000   -0.0000   -0.0000 N   0  0  0  0  0  0  0  0  0  0  0  0
   -0.0000    0.0000    1.4021 C   0  0  0  0  0  0  0  0  0  0  0  0
    1.2516    0.0000    1.9602 N   0  0  0  0  0  0  0  0  0  0  0  0
    1.1388    0.0000   -0.7338 C   0  0  0  0  0  0  0  0  0  0  0  0
    2.3429    0.0000   -0.1129 C   0  0  0  0  0  0  0  0  0  0  0  0
    2.4840    0.0000    1.3481 C   0  0  0  0  0  0  0  0  0  0  0  0
    3.5059    0.0474    2.0039 O   0  0  0  0  0  0  0  0  0  0  0  0
   -1.0098   -0.0000    2.0528 O   0  0  0  0  0  0  0  0  0  0  0  0
    3.4348    0.0480   -0.8737 F   0  0  0  0  0  0  0  0  0  0  0  0
    0.9425    0.0526   -2.0499 O   0  0  0  0  0  0  0  0  0  0  0  0
   -1.2897    0.0000   -0.6651 C   0  0  0  0  0  0  0  0  0  0  0  0
   -1.7973    1.4184   -0.9197 C   0  0  0  0  0  0  0  0  0  0  0  0
   -3.1947    1.4739   -1.5774 C   0  0  0  0  0  0  0  0  0  0  0  0
   -3.6704    2.8871   -1.7571 C   0  0  0  0  0  0  0  0  0  0  0  0
   -3.3632    3.6351   -2.8928 C   0  0  0  0  0  0  0  0  0  0  0  0
   -4.3691    3.5676   -0.7610 C   0  0  0  0  0  0  0  0  0  0  0  0
   -3.7351    4.9490   -3.0794 C   0  0  0  0  0  0  0  0  0  0  0  0
   -4.7426    4.8804   -0.9529 C   0  0  0  0  0  0  0  0  0  0  0  0
   -4.4575    5.5754   -2.0868 C   0  0  0  0  0  0  0  0  0  0  0  0
   -4.9011    6.8950   -2.2530 N   0  0  0  0  0  0  0  0  0  0  0  0
   -4.7700    7.7790   -3.2609 C   0  0  0  0  0  0  0  0  0  0  0  0
   -4.1326    7.5465   -4.2606 O   0  0  0  0  0  0  0  0  0  0  0  0
   -5.4125    8.9351   -3.0056 O   0  0  0  0  0  0  0  0  0  0  0  0
  2  1  1  0
  3  2  1  0
  4  1  1  0
  5  4  2  0
  6  5  1  0
  6  3  1  0
  7  6  2  0
  8  2  2  0
  9  5  1  0
 10  4  1  0
 11  1  1  0
 12 11  1  0
 13 12  1  0
 14 13  1  0
 15 14  2  0
 16 14  1  0
 17 15  1  0
 18 16  2  0
 19 18  1  0
 19 17  2  0
 20 19  1  0
 21 20  1  0
 22 21  2  0
 23 21  1  0
M  END
>  <SMILES>  (50) 
O=C(O)Nc1ccc(CCCn2c(O)c(F)c(=O)[nH]c2=O)cc1

>  <scaffold>  (50) 
pyrimidine

$$$$
