
     RDKit          3D

 30 32  0  0  0  0  0  0  0  0999 V2000
    0.0000   -0.0000   -0.0000 C   0  0  0  0  0  0  0  0  0  0  0  0
   -0.0000    0.0000    1.3241 N   0  0  0  0  0  0  0  0  0  0  0  0
    1.1713    0.0000    1.9417 C   0  0  0  0  0  0  0  0  0  0  0  0
    1.1652    0.0000   -0.7508 C   0  0  0  0  0  0  0  0  0  0  0  0
    2.4043   -0.0000   -0.1119 C   0  0  0  0  0  0  0  0  0  0  0  0
    2.4043   -0.0000    1.2822 C   0  0  0  0  0  0  0  0  0  0  0  0
    3.6087   -0.0506   -0.8278 N   0  0  0  0  0  0  0  0  0  0  0  0
    3.9547   -1.0154   -1.7493 C   0  0  0  0  0  0  0  0  0  0  0  0
    4.6406    0.8335   -0.7269 C   0  0  0  0  0  0  0  0  0  0  0  0
    5.1955   -0.6279   -2.2306 C   0  0  0  0  0  0  0  0  0  0  0  0
    5.6073    0.4776   -1.6188 C   0  0  0  0  0  0  0  0  0  0  0  0
    3.1525   -2.1694   -2.0755 C   0  0  0  0  0  0  0  0  0  0  0  0
    2.1357   -2.5422   -1.5398 O   0  0  0  0  0  0  0  0  0  0  0  0
    3.6645   -2.8490   -3.1098 O   0  0  0  0  0  0  0  0  0  0  0  0
    3.0439   -4.0560   -3.5487 C   0  0  1  0  0  0  0  0  0  0  0  0
    2.3505   -3.7984   -4.8856 C   0  0  0  0  0  0  0  0  0  0  0  0
    4.1116   -5.1247   -3.7088 C   0  0  0  0  0  0  0  0  0  0  0  0
    3.4798   -6.8059   -3.9653 S   0  0  0  0  0  0  0  0  0  0  0  0
    3.3992   -6.8286   -5.8197 C   0  0  0  0  0  0  0  0  0  0  0  0
    2.5249   -7.9645   -6.1727 C   0  0  0  0  0  0  0  0  0  0  0  0
    2.9763   -9.1417   -6.6248 C   0  0  0  0  0  0  0  0  0  0  0  0
    2.1632  -10.3029   -6.9351 C   0  0  0  0  0  0  0  0  0  0  0  0
    2.8217  -11.4528   -7.3420 C   0  0  0  0  0  0  0  0  0  0  0  0
    0.7792  -10.3348   -6.8648 C   0  0  0  0  0  0  0  0  0  0  0  0
    2.0948  -12.5950   -7.5999 C   0  0  0  0  0  0  0  0  0  0  0  0
    0.0560  -11.4704   -7.1206 C   0  0  0  0  0  0  0  0  0  0  0  0
    0.7161  -12.6633   -7.4739 C   0  0  0  0  0  0  0  0  0  0  0  0
   -0.1030  -13.6976   -7.7454 O   0  0  0  0  0  0  0  0  0  0  0  0
    0.5055  -14.8906   -8.1608 C   0  0  0  0  0  0  0  0  0  0  0  0
    1.1090  -15.6742   -6.9963 C   0  0  0  0  0  0  0  0  0  0  0  0
  2  1  2  0
  3  2  1  0
  4  1  1  0
  5  4  2  0
  6  5  1  0
  6  3  2  0
  7  5  1  0
  8  7  1  0
  9  7  1  0
 10  8  2  0
 11 10  1  0
 11  9  2  0
 12  8  1  0
 13 12  2  0
 14 12  1  0
 15 14  1  0
 15 16  1  6
 17 15  1  0
 18 17  1  0
 19 18  1  0
 20 19  1  0
 21 20  2  0
 22 21  1  0
 23 22  2  0
 24 22  1  0
 25 23  1  0
 26 24  2  0
 27 26  1  0
 27 25  2  0
 28 27  1  0
 29 28  1  0
 30 29  1  0
M  END
>  <SMILES>  (1) 
CCOc1ccc(C=CCSCC(C)OC(=O)c2cccn2-c2ccncc2)cc1

>  <scaffold>  (1) 
pyridine

$$$$

     RDKit          3D

 34 36  0  0  0  0  0  0  0  0999 V2000
    0.0000    0.0000   -0.0000 C   0  0  0  0  0  0  0  0  0  0  0  0
    0.0000    0.0000    1.3941 C   0  0  0  0  0  0  0  0  0  0  0  0
    1.2084    0.0000    2.0569 C   0  0  0  0  0  0  0  0  0  0  0  0
    1.2391    0.0000   -0.6390 C   0  0  0  0  0  0  0  0  0  0  0  0
    2.3844   -0.0563    0.0231 N   0  0  0  0  0  0  0  0  0  0  0  0
    2.3837   -0.1157    1.3458 C   0  0  0  0  0  0  0  0  0  0  0  0
    3.5706   -0.2200    1.9743 O   0  0  0  0  0  0  0  0  0  0  0  0
   -1.1652    0.0000   -0.7508 N   0  0  0  0  0  0  0  0  0  0  0  0
   -2.4409    0.0627   -0.2992 C   0  0  0  0  0  0  0  0  0  0  0  0
   -2.8207    0.0737    0.8477 O   0  0  0  0  0  0  0  0  0  0  0  0
    4.7355   -0.1466    1.2266 C   0  0  0  0  0  0  0  0  0  0  0  0
    5.6219   -1.2019    1.2235 C   0  0  0  0  0  0  0  0  0  0  0  0
    5.0158    1.0113    0.5180 C   0  0  0  0  0  0  0  0  0  0  0  0
    6.8220   -1.1544    0.5314 C   0  0  0  0  0  0  0  0  0  0  0  0
    6.2087    1.0564   -0.1709 C   0  0  0  0  0  0  0  0  0  0  0  0
    7.1753   -0.0259   -0.1917 C   0  0  0  0  0  0  0  0  0  0  0  0
   -3.4209    0.0963   -1.4824 C   0  0  0  0  0  0  0  0  0  0  0  0
    8.2971    0.1193   -0.9513 O   0  0  0  0  0  0  0  0  0  0  0  0
   -2.8969    0.5745   -2.6825 O   0  0  0  0  0  0  0  0  0  0  0  0
    9.1756   -0.9826   -1.0029 C   0  0  0  0  0  0  0  0  0  0  0  0
   -2.6201    1.9196   -2.7990 C   0  0  0  0  0  0  0  0  0  0  0  0
   -2.2939    2.3744   -4.0758 C   0  0  0  0  0  0  0  0  0  0  0  0
   -2.6383    2.8452   -1.7673 C   0  0  0  0  0  0  0  0  0  0  0  0
   -1.9455    3.6874   -4.3091 C   0  0  0  0  0  0  0  0  0  0  0  0
   -2.2840    4.1809   -2.0046 C   0  0  0  0  0  0  0  0  0  0  0  0
   -1.8681    4.5487   -3.2258 C   0  0  0  0  0  0  0  0  0  0  0  0
   -2.2897    4.9830   -0.9032 O   0  0  0  0  0  0  0  0  0  0  0  0
   -2.0043    6.3589   -1.0210 C   0  0  0  0  0  0  0  0  0  0  0  0
   -3.1911    7.1338   -1.5915 C   0  0  0  0  0  0  0  0  0  0  0  0
   -2.8508    8.6222   -1.6476 C   0  0  0  0  0  0  0  0  0  0  0  0
   -4.0219    9.2233   -2.1303 O   0  0  0  0  0  0  0  0  0  0  0  0
   -3.8132   10.6100   -2.2793 C   0  0  0  0  0  0  0  0  0  0  0  0
   -5.1545   11.2298   -2.6681 C   0  0  0  0  0  0  0  0  0  0  0  0
   -4.9698   12.7293   -2.8955 C   0  0  0  0  0  0  0  0  0  0  0  0
  2  1  2  0
  3  2  1  0
  4  1  1  0
  5  4  2  0
  6  5  1  0
  6  3  2  0
  7  6  1  0
  8  1  1  0
  9  8  1  0
 10  9  2  0
 11  7  1  0
 12 11  2  0
 13 11  1  0
 14 12  1  0
 15 13  2  0
 16 15  1  0
 16 14  2  0
 17  9  1  0
 18 16  1  0
 19 17  1  0
 20 18  1  0
 21 19  1  0
 22 21  2  0
 23 21  1  0
 24 22  1  0
 25 23  2  0
 26 25  1  0
 26 24  2  0
 27 25  1  0
 28 27  1  0
 29 28  1  0
 30 29  1  0
 31 30  1  0
 32 31  1  0
 33 32  1  0
 34 33  1  0
M  END
>  <SMILES>  (2) 
CCCOCCCOc1cccc(OCC(=O)Nc2ccc(Oc3ccc(OC)cc3)nc2)c1

>  <scaffold>  (2) 
pyridine

$$$$

     RDKit          3D

 23 25  0  0  0  0  0  0  0  0999 V2000
   -0.0000   -0.0000    0.0000 C   0  0  0  0  0  0  0  0  0  0  0  0
   -0.0000   -0.0000    1.3862 C   0  0  0  0  0  0  0  0  0  0  0  0
    1.2154    0.0000    2.0527 C   0  0  0  0  0  0  0  0  0  0  0  0
    1.2320   -0.0000   -0.6353 C   0  0  0  0  0  0  0  0  0  0  0  0
    2.4088   -0.0000   -0.0284 N   0  0  0  0  0  0  0  0  0  0  0  0
    2.4088   -0.0000    1.3032 C   0  0  0  0  0  0  0  0  0  0  0  0
    3.6765   -0.0506    1.9001 N   0  0  0  0  0  0  0  0  0  0  0  0
    4.0560    0.6472    3.0072 C   0  0  0  0  0  0  0  0  0  0  0  0
    4.6770   -0.8564    1.4459 C   0  0  0  0  0  0  0  0  0  0  0  0
    5.3368    0.2925    3.3074 C   0  0  0  0  0  0  0  0  0  0  0  0
    5.7534   -0.7114    2.2688 C   0  0  0  0  0  0  0  0  0  0  0  0
    7.0742   -1.4248    2.2261 C   0  0  0  0  0  0  0  0  0  0  0  0
    7.1806   -2.3545    1.1927 O   0  0  0  0  0  0  0  0  0  0  0  0
    7.3920   -1.8876   -0.0697 C   0  0  0  0  0  0  0  0  0  0  0  0
    7.4574   -0.5560   -0.4773 C   0  0  0  0  0  0  0  0  0  0  0  0
    7.5411   -2.8560   -1.0614 C   0  0  0  0  0  0  0  0  0  0  0  0
    7.7341   -0.2039   -1.7976 C   0  0  0  0  0  0  0  0  0  0  0  0
    7.8126   -2.5087   -2.3673 C   0  0  0  0  0  0  0  0  0  0  0  0
    7.8890   -1.2213   -2.7261 C   0  0  0  0  0  0  0  0  0  0  0  0
    8.2026   -0.8361   -3.9782 F   0  0  0  0  0  0  0  0  0  0  0  0
    7.9174   -3.4112   -3.3722 O   0  0  0  0  0  0  0  0  0  0  0  0
    7.7446   -4.7742   -3.0923 C   0  0  0  0  0  0  0  0  0  0  0  0
    8.8090   -5.3806   -2.1792 C   0  0  0  0  0  0  0  0  0  0  0  0
  2  1  2  0
  3  2  1  0
  4  1  1  0
  5  4  2  0
  6  5  1  0
  6  3  2  0
  7  6  1  0
  8  7  1  0
  9  7  1  0
 10  8  2  0
 11 10  1  0
 11  9  2  0
 12 11  1  0
 13 12  1  0
 14 13  1  0
 15 14  2  0
 16 14  1  0
 17 15  1  0
 18 16  2  0
 19 18  1  0
 19 17  2  0
 20 19  1  0
 21 18  1  0
 22 21  1  0
 23 22  1  0
M  END
>  <SMILES>  (3) 
CCOc1cc(OCc2ccn(-c3ccccn3)c2)ccc1F

>  <scaffold>  (3) 
pyridine

$$$$

     RDKit          3D

 29 31  0  0  0  0  0  0  0  0999 V2000
   -0.0000   -0.0000    0.0000 C   0  0  0  0  0  0  0  0  0  0  0  0
    0.0000   -0.0000    1.3165 N   0  0  0  0  0  0  0  0  0  0  0  0
    1.1543    0.0000    1.9496 C   0  0  0  0  0  0  0  0  0  0  0  0
    1.1652   -0.0000   -0.7508 C   0  0  0  0  0  0  0  0  0  0  0  0
    2.4043   -0.0000   -0.1119 C   0  0  0  0  0  0  0  0  0  0  0  0
    2.3337   -0.0552    1.2714 C   0  0  0  0  0  0  0  0  0  0  0  0
    3.7093    0.0548   -0.8876 C   0  0  2  0  0  0  0  0  0  0  0  0
    4.8367   -0.3460   -0.1415 O   0  0  0  0  0  0  0  0  0  0  0  0
    3.8948    1.5052   -1.3879 C   0  0  0  0  0  0  0  0  0  0  0  0
    3.2646    1.9253   -2.3204 O   0  0  0  0  0  0  0  0  0  0  0  0
    4.7672    2.1526   -0.6309 O   0  0  0  0  0  0  0  0  0  0  0  0
    5.0317    3.5201   -0.8978 C   0  0  0  0  0  0  0  0  0  0  0  0
    6.0936    3.7250   -1.9646 C   0  0  0  0  0  0  0  0  0  0  0  0
    7.2926    3.1607   -1.4823 O   0  0  0  0  0  0  0  0  0  0  0  0
    8.4444    3.4411   -2.1697 C   0  0  0  0  0  0  0  0  0  0  0  0
    8.4795    4.0319   -3.4232 C   0  0  0  0  0  0  0  0  0  0  0  0
    9.6116    3.0335   -1.5429 C   0  0  0  0  0  0  0  0  0  0  0  0
    9.7039    4.3122   -3.9904 C   0  0  0  0  0  0  0  0  0  0  0  0
   10.8442    3.3088   -2.1143 C   0  0  0  0  0  0  0  0  0  0  0  0
   10.9334    4.0359   -3.3756 C   0  0  0  0  0  0  0  0  0  0  0  0
   12.1119    4.4475   -3.9216 N   0  0  0  0  0  0  0  0  0  0  0  0
   12.2728    4.8321   -5.3116 C   0  0  0  0  0  0  0  0  0  0  0  0
   12.1007    3.6620   -6.2511 C   0  0  0  0  0  0  0  0  0  0  0  0
   11.0665    3.6469   -7.1500 C   0  0  0  0  0  0  0  0  0  0  0  0
   13.0186    2.6144   -6.1922 C   0  0  0  0  0  0  0  0  0  0  0  0
   10.9193    2.5234   -7.9621 C   0  0  0  0  0  0  0  0  0  0  0  0
   12.8730    1.4973   -6.9998 C   0  0  0  0  0  0  0  0  0  0  0  0
   11.7426    1.4187   -7.9279 C   0  0  0  0  0  0  0  0  0  0  0  0
   11.7336    0.3078   -8.6898 O   0  0  0  0  0  0  0  0  0  0  0  0
  2  1  2  0
  3  2  1  0
  4  1  1  0
  5  4  2  0
  6  5  1  0
  6  3  2  0
  7  5  1  0
  7  8  1  1
  9  7  1  0
 10  9  2  0
 11  9  1  0
 12 11  1  0
 13 12  1  0
 14 13  1  0
 15 14  1  0
 16 15  2  0
 17 15  1  0
 18 16  1  0
 19 17  2  0
 20 19  1  0
 20 18  2  0
 21 20  1  0
 22 21  1  0
 23 22  1  0
 24 23  2  0
 25 23  1  0
 26 24  1  0
 27 25  2  0
 28 26  2  0
 28 27  1  0
 29 28  1  0
M  END
>  <SMILES>  (4) 
O=C(OCCOc1ccc(NCc2ccc(O)cc2)cc1)C(O)c1ccncc1

>  <scaffold>  (4) 
pyridine

$$$$

     RDKit          3D

 18 20  0  0  0  0  0  0  0  0999 V2000
   -0.0000   -0.0000    0.0000 C   0  0  0  0  0  0  0  0  0  0  0  0
   -0.0000   -0.0000    1.3393 N   0  0  0  0  0  0  0  0  0  0  0  0
    1.1905   -0.0000    2.0180 C   0  0  0  0  0  0  0  0  0  0  0  0
    1.1117   -0.0546   -0.7994 C   0  0  0  0  0  0  0  0  0  0  0  0
    2.4309   -0.0546   -0.1947 C   0  0  0  0  0  0  0  0  0  0  0  0
    2.3562    0.0079    1.2699 C   0  0  0  0  0  0  0  0  0  0  0  0
    3.4835   -0.1481   -0.8086 O   0  0  0  0  0  0  0  0  0  0  0  0
    3.5843    0.0693    1.9767 C   0  0  0  0  0  0  0  0  0  0  0  0
    3.5628    0.1783    3.3426 C   0  0  0  0  0  0  0  0  0  0  0  0
    2.3897    0.2336    4.0938 C   0  0  0  0  0  0  0  0  0  0  0  0
    1.1748    0.1769    3.4454 C   0  0  0  0  0  0  0  0  0  0  0  0
    0.9091    0.0105   -2.1772 N   0  0  0  0  0  0  0  0  0  0  0  0
   -0.2758    0.0634   -2.7131 N   0  0  0  0  0  0  0  0  0  0  0  0
    1.9578    0.0089   -2.9856 N   0  0  0  0  0  0  0  0  0  0  0  0
   -0.0626    0.1685   -4.0311 C   0  0  0  0  0  0  0  0  0  0  0  0
    1.3074    0.1343   -4.1674 C   0  0  0  0  0  0  0  0  0  0  0  0
    2.0253    0.1241   -5.3254 N   0  0  0  0  0  0  0  0  0  0  0  0
   -1.1599    0.3150   -5.0078 C   0  0  0  0  0  0  0  0  0  0  0  0
  2  1  1  0
  3  2  1  0
  4  1  2  0
  5  4  1  0
  6  5  1  0
  6  3  2  0
  7  5  2  0
  8  6  1  0
  9  8  2  0
 10  9  1  0
 11 10  2  0
 11  3  1  0
 12  4  1  0
 13 12  1  0
 14 12  1  0
 15 13  2  0
 16 15  1  0
 16 14  2  0
 17 16  1  0
 18 15  1  0
M  END
>  <SMILES>  (5) 
Cc1nn(-c2c[nH]c3ccccc3c2=O)nc1N

>  <scaffold>  (5) 
pyridine

$$$$

     RDKit          3D

 33 34  0  0  0  0  0  0  0  0999 V2000
    0.0000    0.0000    0.0000 C   0  0  0  0  0  0  0  0  0  0  0  0
    0.0000   -0.0000    1.3317 N   0  0  0  0  0  0  0  0  0  0  0  0
    1.1543    0.0000    1.9648 C   0  0  0  0  0  0  0  0  0  0  0  0
    1.1786   -0.0000   -0.7595 C   0  0  0  0  0  0  0  0  0  0  0  0
    2.4036   -0.0000   -0.1278 C   0  0  0  0  0  0  0  0  0  0  0  0
    2.4036   -0.0000    1.2584 C   0  0  0  0  0  0  0  0  0  0  0  0
   -1.2301   -0.0604   -0.5645 N   0  0  0  0  0  0  0  0  0  0  0  0
   -1.4660    0.0810   -1.8910 N   0  0  0  0  0  0  0  0  0  0  0  0
   -2.6333   -0.0281   -2.3847 C   0  0  0  0  0  0  0  0  0  0  0  0
   -2.7637    0.2075   -3.8535 C   0  0  0  0  0  0  0  0  0  0  0  0
   -3.8353   -0.3843   -1.5735 C   0  0  0  0  0  0  0  0  0  0  0  0
   -3.8942   -1.5861   -0.8693 C   0  0  0  0  0  0  0  0  0  0  0  0
   -4.9575    0.4400   -1.6421 C   0  0  0  0  0  0  0  0  0  0  0  0
   -4.9605   -1.9350   -0.0688 C   0  0  0  0  0  0  0  0  0  0  0  0
   -6.0181    0.1007   -0.8435 C   0  0  0  0  0  0  0  0  0  0  0  0
   -5.9779   -1.0031    0.0645 C   0  0  0  0  0  0  0  0  0  0  0  0
   -7.0632   -1.2132    0.8744 O   0  0  0  0  0  0  0  0  0  0  0  0
   -7.2653   -2.3987    1.5795 C   0  0  0  0  0  0  0  0  0  0  0  0
   -6.7766   -3.4242    1.2105 O   0  0  0  0  0  0  0  0  0  0  0  0
   -8.1468   -2.2113    2.5807 N   0  0  0  0  0  0  0  0  0  0  0  0
   -8.4328   -3.2005    3.5796 C   0  0  0  0  0  0  0  0  0  0  0  0
   -7.8630   -2.8535    4.9639 C   0  0  0  0  0  0  0  0  0  0  0  0
   -6.3794   -2.6874    4.9276 C   0  0  0  0  0  0  0  0  0  0  0  0
   -5.4234   -3.6250    4.9550 C   0  0  0  0  0  0  0  0  0  0  0  0
   -3.9645   -3.3230    4.8543 C   0  0  0  0  0  0  0  0  0  0  0  0
   -5.7294   -4.9461    5.0881 O   0  0  0  0  0  0  0  0  0  0  0  0
   -4.7740   -5.9005    5.5472 C   0  0  0  0  0  0  0  0  0  0  0  0
   -4.3747   -5.5876    6.9792 C   0  0  0  0  0  0  0  0  0  0  0  0
   -3.3955   -6.6662    7.4399 C   0  0  0  0  0  0  0  0  0  0  0  0
   -2.9171   -6.3644    8.8686 C   0  0  2  0  0  0  0  0  0  0  0  0
   -1.9026   -7.4377    9.2600 C   0  0  0  0  0  0  0  0  0  0  0  0
   -4.0477   -6.3210    9.8953 C   0  0  0  0  0  0  0  0  0  0  0  0
   -3.5113   -6.0708   11.3134 C   0  0  0  0  0  0  0  0  0  0  0  0
  2  1  2  0
  3  2  1  0
  4  1  1  0
  5  4  2  0
  6  5  1  0
  6  3  2  0
  7  1  1  0
  8  7  1  0
  9  8  2  0
 10  9  1  0
 11  9  1  0
 12 11  2  0
 13 11  1  0
 14 12  1  0
 15 13  2  0
 16 15  1  0
 16 14  2  0
 17 16  1  0
 18 17  1  0
 19 18  2  0
 20 18  1  0
 21 20  1  0
 22 21  1  0
 23 22  1  0
 24 23  2  0
 25 24  1  0
 26 24  1  0
 27 26  1  0
 28 27  1  0
 29 28  1  0
 30 29  1  0
 30 31  1  1
 32 30  1  0
 33 32  1  0
M  END
>  <SMILES>  (6) 
CCC(C)CCCOC(C)=CCCNC(=O)Oc1ccc(C(C)=NNc2ccccn2)cc1

>  <scaffold>  (6) 
pyridine

$$$$

     RDKit          3D

 29 30  0  0  0  0  0  0  0  0999 V2000
   -0.0000   -0.0000   -0.0000 C   0  0  0  0  0  0  0  0  0  0  0  0
   -0.0000   -0.0000    1.3241 N   0  0  0  0  0  0  0  0  0  0  0  0
    1.1713    0.0000    1.9417 C   0  0  0  0  0  0  0  0  0  0  0  0
    1.1652   -0.0000   -0.7508 C   0  0  0  0  0  0  0  0  0  0  0  0
    2.4043    0.0000   -0.1119 C   0  0  0  0  0  0  0  0  0  0  0  0
    2.4043   -0.0000    1.2822 C   0  0  0  0  0  0  0  0  0  0  0  0
    3.6411   -0.0544   -0.7527 N   0  0  0  0  0  0  0  0  0  0  0  0
    3.8832   -0.1163   -2.0842 C   0  0  0  0  0  0  0  0  0  0  0  0
    3.0781   -0.0795   -2.9843 O   0  0  0  0  0  0  0  0  0  0  0  0
    5.2161   -0.2128   -2.3875 N   0  0  0  0  0  0  0  0  0  0  0  0
    6.1918   -0.2437   -1.4706 N   0  0  0  0  0  0  0  0  0  0  0  0
    7.4344   -0.2888   -1.8018 C   0  0  0  0  0  0  0  0  0  0  0  0
    8.4352   -0.3717   -0.7888 C   0  0  0  0  0  0  0  0  0  0  0  0
    9.7816   -0.3746   -0.9387 C   0  0  0  0  0  0  0  0  0  0  0  0
    7.8920   -0.4079    0.8880 S   0  0  0  0  0  0  0  0  0  0  0  0
   10.4118   -0.5240    0.2869 C   0  0  0  0  0  0  0  0  0  0  0  0
    9.5526   -0.5686    1.3567 C   0  0  0  0  0  0  0  0  0  0  0  0
    9.9187   -0.7257    2.7870 C   0  0  0  0  0  0  0  0  0  0  0  0
   11.3947   -1.0147    2.9271 C   0  0  0  0  0  0  0  0  0  0  0  0
   12.2492   -1.0725    2.0749 O   0  0  0  0  0  0  0  0  0  0  0  0
   11.6680   -1.1946    4.2179 O   0  0  0  0  0  0  0  0  0  0  0  0
   13.0375   -1.5330    4.4786 C   0  0  0  0  0  0  0  0  0  0  0  0
   13.2926   -3.0266    4.2821 C   0  0  0  0  0  0  0  0  0  0  0  0
   14.7261   -3.4484    4.6008 C   0  0  0  0  0  0  0  0  0  0  0  0
   14.9140   -4.9562    4.4413 C   0  0  0  0  0  0  0  0  0  0  0  0
   16.3465   -5.4226    4.6961 C   0  0  0  0  0  0  0  0  0  0  0  0
   16.4926   -6.9267    4.4709 C   0  0  0  0  0  0  0  0  0  0  0  0
   17.9042   -7.4563    4.7676 C   0  0  0  0  0  0  0  0  0  0  0  0
   17.9828   -8.9706    4.5799 C   0  0  0  0  0  0  0  0  0  0  0  0
  2  1  2  0
  3  2  1  0
  4  1  1  0
  5  4  2  0
  6  5  1  0
  6  3  2  0
  7  5  1  0
  8  7  1  0
  9  8  2  0
 10  8  1  0
 11 10  1  0
 12 11  2  0
 13 12  1  0
 14 13  2  0
 15 13  1  0
 16 14  1  0
 17 16  2  0
 17 15  1  0
 18 17  1  0
 19 18  1  0
 20 19  2  0
 21 19  1  0
 22 21  1  0
 23 22  1  0
 24 23  1  0
 25 24  1  0
 26 25  1  0
 27 26  1  0
 28 27  1  0
 29 28  1  0
M  END
>  <SMILES>  (7) 
CCCCCCCCOC(=O)Cc1ccc(C=NNC(=O)Nc2ccncc2)s1

>  <scaffold>  (7) 
pyridine

$$$$

     RDKit          3D

 30 32  0  0  0  0  0  0  0  0999 V2000
    0.0000   -0.0000   -0.0000 C   0  0  0  0  0  0  0  0  0  0  0  0
    0.0000    0.0000    1.4102 C   0  0  0  0  0  0  0  0  0  0  0  0
    1.1792    0.0000    2.1083 C   0  0  0  0  0  0  0  0  0  0  0  0
    1.2180   -0.0000   -0.6281 C   0  0  0  0  0  0  0  0  0  0  0  0
    2.3831    0.0572    0.0454 N   0  0  0  0  0  0  0  0  0  0  0  0
    2.5108    0.1228    1.4402 C   0  0  0  0  0  0  0  0  0  0  0  0
    3.5876    0.2175    2.0103 O   0  0  0  0  0  0  0  0  0  0  0  0
    1.2281   -0.0489    3.4613 F   0  0  0  0  0  0  0  0  0  0  0  0
    3.6316    0.1063   -0.6595 C   0  0  0  0  0  0  0  0  0  0  0  0
    4.4831   -0.9874   -0.6535 C   0  0  0  0  0  0  0  0  0  0  0  0
    4.0176    1.2771   -1.3105 C   0  0  0  0  0  0  0  0  0  0  0  0
    5.7134   -0.9692   -1.2745 C   0  0  0  0  0  0  0  0  0  0  0  0
    5.2543    1.2926   -1.9364 C   0  0  0  0  0  0  0  0  0  0  0  0
    6.1478    0.1750   -1.9420 C   0  0  0  0  0  0  0  0  0  0  0  0
   -1.1585   -0.0000   -0.7465 N   0  0  0  0  0  0  0  0  0  0  0  0
   -2.4439    0.1907   -0.2871 C   0  0  0  0  0  0  0  0  0  0  0  0
   -2.7506    0.5017    0.8393 O   0  0  0  0  0  0  0  0  0  0  0  0
    7.3491    0.0550   -2.5567 O   0  0  0  0  0  0  0  0  0  0  0  0
   -3.3700    0.0791   -1.2696 N   0  0  0  0  0  0  0  0  0  0  0  0
   -4.7685    0.4000   -1.0528 C   0  0  0  0  0  0  0  0  0  0  0  0
   -5.1020    1.6890   -1.7477 C   0  0  0  0  0  0  0  0  0  0  0  0
   -5.9875    1.7863   -2.7479 C   0  0  0  0  0  0  0  0  0  0  0  0
    7.8070    1.1707   -3.2875 C   0  0  0  0  0  0  0  0  0  0  0  0
   -6.3031    2.9890   -3.4797 C   0  0  0  0  0  0  0  0  0  0  0  0
   -7.2167    2.8772   -4.5269 C   0  0  0  0  0  0  0  0  0  0  0  0
   -5.7718    4.2484   -3.2053 C   0  0  0  0  0  0  0  0  0  0  0  0
   -7.5115    3.9893   -5.2856 C   0  0  0  0  0  0  0  0  0  0  0  0
   -6.0676    5.3671   -3.9684 C   0  0  0  0  0  0  0  0  0  0  0  0
   -6.9449    5.2354   -5.0672 C   0  0  0  0  0  0  0  0  0  0  0  0
   -7.1671    6.3426   -5.8157 O   0  0  0  0  0  0  0  0  0  0  0  0
  2  1  1  0
  3  2  2  0
  4  1  2  0
  5  4  1  0
  6  5  1  0
  6  3  1  0
  7  6  2  0
  8  3  1  0
  9  5  1  0
 10  9  2  0
 11  9  1  0
 12 10  1  0
 13 11  2  0
 14 13  1  0
 14 12  2  0
 15  1  1  0
 16 15  1  0
 17 16  2  0
 18 14  1  0
 19 16  1  0
 20 19  1  0
 21 20  1  0
 22 21  2  0
 23 18  1  0
 24 22  1  0
 25 24  2  0
 26 24  1  0
 27 25  1  0
 28 26  2  0
 29 28  1  0
 29 27  2  0
 30 29  1  0
M  END
>  <SMILES>  (8) 
COc1ccc(-n2cc(NC(=O)NCC=Cc3ccc(O)cc3)cc(F)c2=O)cc1

>  <scaffold>  (8) 
pyridine

$$$$

     RDKit          3D

 28 30  0  0  0  0  0  0  0  0999 V2000
    0.0000   -0.0000   -0.0000 C   0  0  0  0  0  0  0  0  0  0  0  0
   -0.0000   -0.0000    1.4021 C   0  0  0  0  0  0  0  0  0  0  0  0
    1.2042   -0.0000    2.0886 C   0  0  0  0  0  0  0  0  0  0  0  0
    1.2533    0.0000   -0.6463 C   0  0  0  0  0  0  0  0  0  0  0  0
    2.3537   -0.0000    0.0627 N   0  0  0  0  0  0  0  0  0  0  0  0
    2.3537   -0.0000    1.3868 C   0  0  0  0  0  0  0  0  0  0  0  0
   -1.1652    0.0000   -0.7508 N   0  0  0  0  0  0  0  0  0  0  0  0
   -2.4911   -0.0000   -0.3465 C   0  0  0  0  0  0  0  0  0  0  0  0
   -2.8190    0.0000    0.8091 O   0  0  0  0  0  0  0  0  0  0  0  0
   -3.3056    0.0536   -1.4375 N   0  0  0  0  0  0  0  0  0  0  0  0
   -4.7139    0.0126   -1.3787 C   0  0  0  0  0  0  0  0  0  0  0  0
   -5.4149    0.9713   -0.6640 C   0  0  0  0  0  0  0  0  0  0  0  0
   -5.3769   -1.0308   -2.0232 C   0  0  0  0  0  0  0  0  0  0  0  0
   -6.8029    0.8608   -0.5936 C   0  0  0  0  0  0  0  0  0  0  0  0
   -6.7569   -1.1403   -1.9512 C   0  0  0  0  0  0  0  0  0  0  0  0
   -7.4866   -0.1412   -1.2644 C   0  0  0  0  0  0  0  0  0  0  0  0
   -4.4211   -2.2418   -2.8764 S   0  0  0  0  0  0  0  0  0  0  0  0
   -5.5736   -3.3838   -3.6409 C   0  0  0  0  0  0  0  0  0  0  0  0
   -6.1913   -3.0328   -4.8311 C   0  0  0  0  0  0  0  0  0  0  0  0
   -5.7747   -4.6323   -3.0542 C   0  0  0  0  0  0  0  0  0  0  0  0
   -7.0458   -3.8976   -5.4804 C   0  0  0  0  0  0  0  0  0  0  0  0
   -6.6367   -5.4991   -3.7077 C   0  0  0  0  0  0  0  0  0  0  0  0
   -7.2361   -5.1630   -4.9476 C   0  0  0  0  0  0  0  0  0  0  0  0
   -8.3348   -6.4102   -5.8210 Br  0  0  0  0  0  0  0  0  0  0  0  0
   -6.8969   -6.6912   -3.1554 O   0  0  0  0  0  0  0  0  0  0  0  0
   -6.4252   -7.1586   -1.9113 C   0  0  0  0  0  0  0  0  0  0  0  0
   -6.9348   -8.5414   -1.5081 C   0  0  0  0  0  0  0  0  0  0  0  0
   -6.5505   -9.1380   -0.1649 C   0  0  0  0  0  0  0  0  0  0  0  0
  2  1  2  0
  3  2  1  0
  4  1  1  0
  5  4  2  0
  6  5  1  0
  6  3  2  0
  7  1  1  0
  8  7  1  0
  9  8  2  0
 10  8  1  0
 11 10  1  0
 12 11  2  0
 13 11  1  0
 14 12  1  0
 15 13  2  0
 16 15  1  0
 16 14  2  0
 17 13  1  0
 18 17  1  0
 19 18  2  0
 20 18  1  0
 21 19  1  0
 22 20  2  0
 23 21  2  0
 23 22  1  0
 24 23  1  0
 25 22  1  0
 26 25  1  0
 27 26  1  0
 28 27  1  0
M  END
>  <SMILES>  (9) 
CCCOc1cc(Sc2ccccc2NC(=O)Nc2cccnc2)ccc1Br

>  <scaffold>  (9) 
pyridine

$$$$

     RDKit          3D

 29 31  0  0  0  0  0  0  0  0999 V2000
    0.0000   -0.0000    0.0000 C   0  0  0  0  0  0  0  0  0  0  0  0
    0.0000   -0.0000    1.3941 C   0  0  0  0  0  0  0  0  0  0  0  0
    1.2154    0.0000    2.0607 C   0  0  0  0  0  0  0  0  0  0  0  0
    1.2391    0.0000   -0.6390 C   0  0  0  0  0  0  0  0  0  0  0  0
    2.4092   -0.0000   -0.0356 N   0  0  0  0  0  0  0  0  0  0  0  0
    2.4092    0.0000    1.2885 C   0  0  0  0  0  0  0  0  0  0  0  0
   -1.1652    0.0000   -0.7508 N   0  0  0  0  0  0  0  0  0  0  0  0
   -2.4685    0.0000   -0.3534 C   0  0  0  0  0  0  0  0  0  0  0  0
   -2.8002   -0.0000    0.8156 O   0  0  0  0  0  0  0  0  0  0  0  0
   -3.4807    0.0591   -1.4497 C   0  0  0  0  0  0  0  0  0  0  0  0
   -3.1821    0.6871   -2.6489 C   0  0  0  0  0  0  0  0  0  0  0  0
   -4.7283   -0.5352   -1.2654 C   0  0  0  0  0  0  0  0  0  0  0  0
   -4.1759    0.7604   -3.6238 C   0  0  0  0  0  0  0  0  0  0  0  0
   -5.7109   -0.4635   -2.2292 C   0  0  0  0  0  0  0  0  0  0  0  0
   -5.4180    0.1732   -3.4394 C   0  0  0  0  0  0  0  0  0  0  0  0
   -3.7413    1.3620   -4.7945 O   0  0  0  0  0  0  0  0  0  0  0  0
   -4.5824    1.9575   -5.6379 C   0  0  0  0  0  0  0  0  0  0  0  0
   -5.7802    2.1229   -5.5180 O   0  0  0  0  0  0  0  0  0  0  0  0
   -3.7805    2.4408   -6.8122 C   0  0  0  0  0  0  0  0  0  0  0  0
   -2.4737    2.1956   -6.8868 N   0  0  0  0  0  0  0  0  0  0  0  0
   -4.4861    3.1453   -7.7866 C   0  0  0  0  0  0  0  0  0  0  0  0
   -1.7457    2.5568   -7.9130 C   0  0  0  0  0  0  0  0  0  0  0  0
   -3.7240    3.5234   -8.8609 C   0  0  0  0  0  0  0  0  0  0  0  0
   -2.3324    3.2263   -8.9858 C   0  0  0  0  0  0  0  0  0  0  0  0
   -1.4848    3.5030  -10.0161 O   0  0  0  0  0  0  0  0  0  0  0  0
   -1.9938    4.2888  -11.0599 C   0  0  0  0  0  0  0  0  0  0  0  0
   -2.3348    5.7339  -10.6997 C   0  0  0  0  0  0  0  0  0  0  0  0
   -2.1477    6.2133   -9.6369 O   0  0  0  0  0  0  0  0  0  0  0  0
   -2.8528    6.4205  -11.6965 O   0  0  0  0  0  0  0  0  0  0  0  0
  2  1  2  0
  3  2  1  0
  4  1  1  0
  5  4  2  0
  6  5  1  0
  6  3  2  0
  7  1  1  0
  8  7  1  0
  9  8  2  0
 10  8  1  0
 11 10  2  0
 12 10  1  0
 13 11  1  0
 14 12  2  0
 15 14  1  0
 15 13  2  0
 16 13  1  0
 17 16  1  0
 18 17  2  0
 19 17  1  0
 20 19  2  0
 21 19  1  0
 22 20  1  0
 23 21  2  0
 24 23  1  0
 24 22  2  0
 25 24  1  0
 26 25  1  0
 27 26  1  0
 28 27  2  0
 29 27  1  0
M  END
>  <SMILES>  (10) 
O=C(O)COc1ccc(C(=O)Oc2cccc(C(=O)Nc3cccnc3)c2)nc1

>  <scaffold>  (10) 
pyridine

$$$$

     RDKit          3D

 31 32  0  0  0  0  0  0  0  0999 V2000
   -0.0000    0.0000    0.0000 C   0  0  0  0  0  0  0  0  0  0  0  0
    0.0000   -0.0000    1.3470 N   0  0  0  0  0  0  0  0  0  0  0  0
    1.1689    0.0000    2.0921 C   0  0  0  0  0  0  0  0  0  0  0  0
    1.1786   -0.0579   -0.6813 C   0  0  0  0  0  0  0  0  0  0  0  0
    2.3870   -0.1769    0.0198 C   0  0  0  0  0  0  0  0  0  0  0  0
    2.3870   -0.1769    1.3902 C   0  0  0  0  0  0  0  0  0  0  0  0
    1.1243   -0.0446    3.3266 O   0  0  0  0  0  0  0  0  0  0  0  0
   -1.2552   -0.0617    2.0726 C   0  0  0  0  0  0  0  0  0  0  0  0
    3.4862   -0.3385    2.1790 O   0  0  0  0  0  0  0  0  0  0  0  0
    4.7510   -0.5885    1.5881 C   0  0  0  0  0  0  0  0  0  0  0  0
    5.7754   -0.7845    2.7045 C   0  0  0  0  0  0  0  0  0  0  0  0
    5.9713    0.3601    3.4759 O   0  0  0  0  0  0  0  0  0  0  0  0
   -1.7695   -1.4990    2.1363 C   0  0  0  0  0  0  0  0  0  0  0  0
   -3.0598   -1.5171    2.9542 C   0  0  0  0  0  0  0  0  0  0  0  0
   -3.5871   -2.9443    3.0940 C   0  0  0  0  0  0  0  0  0  0  0  0
   -4.8436   -2.9139    3.9628 C   0  0  0  0  0  0  0  0  0  0  0  0
   -5.3806   -4.3279    4.1789 C   0  0  0  0  0  0  0  0  0  0  0  0
   -6.6076   -4.2472    5.1004 C   0  0  0  0  0  0  0  0  0  0  0  0
   -7.1276   -5.6494    5.2376 C   0  0  0  0  0  0  0  0  0  0  0  0
   -6.6309   -6.4562    6.2602 C   0  0  0  0  0  0  0  0  0  0  0  0
   -8.1368   -6.0956    4.4117 C   0  0  0  0  0  0  0  0  0  0  0  0
   -7.0419   -7.7649    6.3949 C   0  0  0  0  0  0  0  0  0  0  0  0
   -8.5498   -7.4124    4.5424 C   0  0  0  0  0  0  0  0  0  0  0  0
   -7.9817   -8.3467    5.5062 C   0  0  0  0  0  0  0  0  0  0  0  0
   -6.6707   -8.6311    7.3789 O   0  0  0  0  0  0  0  0  0  0  0  0
   -5.7838   -8.1335    8.3443 C   0  0  0  0  0  0  0  0  0  0  0  0
   -8.3450   -9.6168    5.7695 O   0  0  0  0  0  0  0  0  0  0  0  0
   -9.2299  -10.3233    4.9291 C   0  0  0  0  0  0  0  0  0  0  0  0
   -8.5319  -10.7878    3.6518 C   0  0  0  0  0  0  0  0  0  0  0  0
   -7.3449  -11.7102    3.9252 C   0  0  0  0  0  0  0  0  0  0  0  0
   -6.7206  -12.1860    2.6246 C   0  0  0  0  0  0  0  0  0  0  0  0
  2  1  1  0
  3  2  1  0
  4  1  2  0
  5  4  1  0
  6  5  2  0
  6  3  1  0
  7  3  2  0
  8  2  1  0
  9  6  1  0
 10  9  1  0
 11 10  1  0
 12 11  1  0
 13  8  1  0
 14 13  1  0
 15 14  1  0
 16 15  1  0
 17 16  1  0
 18 17  1  0
 19 18  1  0
 20 19  2  0
 21 19  1  0
 22 20  1  0
 23 21  2  0
 24 23  1  0
 24 22  2  0
 25 22  1  0
 26 25  1  0
 27 24  1  0
 28 27  1  0
 29 28  1  0
 30 29  1  0
 31 30  1  0
M  END
>  <SMILES>  (11) 
CCCCOc1ccc(CCCCCCCn2cccc(OCCO)c2=O)cc1OC

>  <scaffold>  (11) 
pyridine

$$$$

     RDKit          3D

 15 16  0  0  0  0  0  0  0  0999 V2000
   -0.0000    0.0000    0.0000 C   0  0  0  0  0  0  0  0  0  0  0  0
   -0.0000    0.0000    1.4021 C   0  0  0  0  0  0  0  0  0  0  0  0
    1.1770    0.0000    2.0731 C   0  0  0  0  0  0  0  0  0  0  0  0
    1.1853   -0.0582   -0.6852 C   0  0  0  0  0  0  0  0  0  0  0  0
    2.3530   -0.1732   -0.0078 N   0  0  0  0  0  0  0  0  0  0  0  0
    2.4217   -0.1154    1.3914 C   0  0  0  0  0  0  0  0  0  0  0  0
    3.4885   -0.1791    1.9550 O   0  0  0  0  0  0  0  0  0  0  0  0
    3.6364   -0.1865   -0.6849 C   0  0  0  0  0  0  0  0  0  0  0  0
    1.3139   -0.0122   -2.0176 O   0  0  0  0  0  0  0  0  0  0  0  0
    0.3080    0.4155   -2.8700 C   0  0  0  0  0  0  0  0  0  0  0  0
   -0.2804    1.6516   -2.7109 C   0  0  0  0  0  0  0  0  0  0  0  0
    0.0658   -0.3406   -4.0062 C   0  0  0  0  0  0  0  0  0  0  0  0
   -1.2477    2.0559   -3.6178 C   0  0  0  0  0  0  0  0  0  0  0  0
   -0.8911    0.0728   -4.9079 C   0  0  0  0  0  0  0  0  0  0  0  0
   -1.5849    1.2588   -4.7107 C   0  0  0  0  0  0  0  0  0  0  0  0
  2  1  1  0
  3  2  2  0
  4  1  2  0
  5  4  1  0
  6  5  1  0
  6  3  1  0
  7  6  2  0
  8  5  1  0
  9  4  1  0
 10  9  1  0
 11 10  2  0
 12 10  1  0
 13 11  1  0
 14 12  2  0
 15 14  1  0
 15 13  2  0
M  END
>  <SMILES>  (12) 
Cn1c(Oc2ccccc2)cccc1=O

>  <scaffold>  (12) 
pyridine

$$$$

     RDKit          3D

 22 24  0  0  0  0  0  0  0  0999 V2000
    0.0000    0.0000    0.0000 C   0  0  0  0  0  0  0  0  0  0  0  0
   -0.0000    0.0000    1.3862 C   0  0  0  0  0  0  0  0  0  0  0  0
    1.2154   -0.0000    2.0527 C   0  0  0  0  0  0  0  0  0  0  0  0
    1.2320    0.0000   -0.6353 C   0  0  0  0  0  0  0  0  0  0  0  0
    2.4021   -0.0000   -0.0319 N   0  0  0  0  0  0  0  0  0  0  0  0
    2.4021   -0.0000    1.2922 C   0  0  0  0  0  0  0  0  0  0  0  0
    3.6698    0.0506    1.8890 N   0  0  0  0  0  0  0  0  0  0  0  0
    4.8799    0.0989    1.2645 C   0  0  0  0  0  0  0  0  0  0  0  0
    3.8704    0.0053    3.2203 N   0  0  0  0  0  0  0  0  0  0  0  0
    5.7504    0.0820    2.2521 N   0  0  0  0  0  0  0  0  0  0  0  0
    5.1311    0.0235    3.3893 N   0  0  0  0  0  0  0  0  0  0  0  0
    5.1279    0.1088   -0.4506 S   0  0  0  0  0  0  0  0  0  0  0  0
    6.9676    0.2541   -0.4768 C   0  0  0  0  0  0  0  0  0  0  0  0
    7.3696    1.6911   -0.5361 C   0  0  0  0  0  0  0  0  0  0  0  0
    7.5563    2.4495    0.5994 C   0  0  0  0  0  0  0  0  0  0  0  0
    7.4773    2.3043   -1.7746 C   0  0  0  0  0  0  0  0  0  0  0  0
    7.8775    3.7776    0.4946 C   0  0  0  0  0  0  0  0  0  0  0  0
    7.7934    3.6258   -1.8752 C   0  0  0  0  0  0  0  0  0  0  0  0
    8.0302    4.4223   -0.7411 C   0  0  0  0  0  0  0  0  0  0  0  0
    8.3004    5.7490   -0.8940 N   0  0  0  0  0  0  0  0  0  0  0  0
    8.7147    6.5844    0.2069 C   0  0  0  0  0  0  0  0  0  0  0  0
   10.1757    6.3292    0.5740 C   0  0  0  0  0  0  0  0  0  0  0  0
  2  1  2  0
  3  2  1  0
  4  1  1  0
  5  4  2  0
  6  5  1  0
  6  3  2  0
  7  6  1  0
  8  7  1  0
  9  7  1  0
 10  8  2  0
 11  9  2  0
 11 10  1  0
 12  8  1  0
 13 12  1  0
 14 13  1  0
 15 14  2  0
 16 14  1  0
 17 15  1  0
 18 16  2  0
 19 18  1  0
 19 17  2  0
 20 19  1  0
 21 20  1  0
 22 21  1  0
M  END
>  <SMILES>  (13) 
CCNc1ccc(CSc2nnnn2-c2ccccn2)cc1

>  <scaffold>  (13) 
pyridine

$$$$

     RDKit          3D

 20 21  0  0  0  0  0  0  0  0999 V2000
    0.0000   -0.0000   -0.0000 C   0  0  0  0  0  0  0  0  0  0  0  0
   -0.0000   -0.0000    1.3862 C   0  0  0  0  0  0  0  0  0  0  0  0
    1.2084   -0.0000    2.0489 C   0  0  0  0  0  0  0  0  0  0  0  0
    1.2320    0.0000   -0.6353 C   0  0  0  0  0  0  0  0  0  0  0  0
    2.4021    0.0000   -0.0319 N   0  0  0  0  0  0  0  0  0  0  0  0
    2.4021    0.0000    1.2998 C   0  0  0  0  0  0  0  0  0  0  0  0
    3.6341   -0.0492    1.8798 N   0  0  0  0  0  0  0  0  0  0  0  0
    4.7807   -0.0386    1.2177 N   0  0  0  0  0  0  0  0  0  0  0  0
    5.9171   -0.0402    1.8055 C   0  0  0  0  0  0  0  0  0  0  0  0
    7.1111    0.0222    1.0578 C   0  0  0  0  0  0  0  0  0  0  0  0
    8.4369   -0.0196    1.4317 C   0  0  0  0  0  0  0  0  0  0  0  0
    7.0465    0.1403   -0.2748 O   0  0  0  0  0  0  0  0  0  0  0  0
    9.2282    0.0276    0.2752 C   0  0  0  0  0  0  0  0  0  0  0  0
    8.3131    0.1250   -0.7554 C   0  0  0  0  0  0  0  0  0  0  0  0
    8.5367    0.1831   -2.2307 C   0  0  0  0  0  0  0  0  0  0  0  0
    9.9729    0.1085   -2.7201 C   0  0  0  0  0  0  0  0  0  0  0  0
   10.5662    1.0354   -3.2016 O   0  0  0  0  0  0  0  0  0  0  0  0
   10.4823   -1.1060   -2.5222 O   0  0  0  0  0  0  0  0  0  0  0  0
   11.8219   -1.3959   -2.9729 C   0  0  0  0  0  0  0  0  0  0  0  0
   11.8377   -1.8917   -4.3813 C   0  0  0  0  0  0  0  0  0  0  0  0
  2  1  2  0
  3  2  1  0
  4  1  1  0
  5  4  2  0
  6  5  1  0
  6  3  2  0
  7  6  1  0
  8  7  1  0
  9  8  2  0
 10  9  1  0
 11 10  2  0
 12 10  1  0
 13 11  1  0
 14 13  2  0
 14 12  1  0
 15 14  1  0
 16 15  1  0
 17 16  2  0
 18 16  1  0
 19 18  1  0
 20 19  1  0
M  END
>  <SMILES>  (14) 
CCOC(=O)Cc1ccc(C=NNc2ccccn2)o1

>  <scaffold>  (14) 
pyridine

$$$$

     RDKit          3D

 21 22  0  0  0  0  0  0  0  0999 V2000
    0.0000    0.0000   -0.0000 C   0  0  0  0  0  0  0  0  0  0  0  0
   -0.0000    0.0000    1.3941 C   0  0  0  0  0  0  0  0  0  0  0  0
    1.1974   -0.0000    2.0767 C   0  0  0  0  0  0  0  0  0  0  0  0
    1.2320    0.0000   -0.6353 C   0  0  0  0  0  0  0  0  0  0  0  0
    2.4088   -0.0000   -0.0284 N   0  0  0  0  0  0  0  0  0  0  0  0
    2.4088    0.0000    1.3032 C   0  0  0  0  0  0  0  0  0  0  0  0
    3.6723   -0.0531    1.8105 N   0  0  0  0  0  0  0  0  0  0  0  0
    3.8641   -0.1133    3.1116 N   0  0  0  0  0  0  0  0  0  0  0  0
    5.0673   -0.1156    3.5464 C   0  0  0  0  0  0  0  0  0  0  0  0
    6.2834   -0.0622    2.8345 C   0  0  0  0  0  0  0  0  0  0  0  0
    7.1955   -0.0143    2.1398 N   0  0  0  0  0  0  0  0  0  0  0  0
    5.1455   -0.2448    5.0320 C   0  0  0  0  0  0  0  0  0  0  0  0
    6.2265   -0.1286    5.5745 O   0  0  0  0  0  0  0  0  0  0  0  0
    3.9959   -0.4444    5.7206 N   0  0  0  0  0  0  0  0  0  0  0  0
    3.7274   -0.6577    7.0718 C   0  0  0  0  0  0  0  0  0  0  0  0
    2.5502   -1.2262    7.5561 C   0  0  0  0  0  0  0  0  0  0  0  0
    4.7151   -0.3041    8.0141 C   0  0  0  0  0  0  0  0  0  0  0  0
    2.2164   -1.4132    8.8967 C   0  0  0  0  0  0  0  0  0  0  0  0
    4.3876   -0.4863    9.3322 C   0  0  0  0  0  0  0  0  0  0  0  0
    3.1386   -0.9956    9.8204 C   0  0  0  0  0  0  0  0  0  0  0  0
    2.9031   -1.0771   11.1600 O   0  0  0  0  0  0  0  0  0  0  0  0
  2  1  2  0
  3  2  1  0
  4  1  1  0
  5  4  2  0
  6  5  1  0
  6  3  2  0
  7  6  1  0
  8  7  1  0
  9  8  2  0
 10  9  1  0
 11 10  3  0
 12  9  1  0
 13 12  2  0
 14 12  1  0
 15 14  1  0
 16 15  2  0
 17 15  1  0
 18 16  1  0
 19 17  2  0
 20 19  1  0
 20 18  2  0
 21 20  1  0
M  END
>  <SMILES>  (15) 
N#CC(=NNc1ccccn1)C(=O)Nc1ccc(O)cc1

>  <scaffold>  (15) 
pyridine

$$$$

     RDKit          3D

 32 34  0  0  0  0  0  0  0  0999 V2000
    0.0000   -0.0000    0.0000 C   0  0  0  0  0  0  0  0  0  0  0  0
    0.0000   -0.0000    1.3241 N   0  0  0  0  0  0  0  0  0  0  0  0
    1.1543    0.0000    1.9572 C   0  0  0  0  0  0  0  0  0  0  0  0
    1.1652    0.0000   -0.7508 C   0  0  0  0  0  0  0  0  0  0  0  0
    2.3573    0.0586   -0.0617 C   0  0  0  0  0  0  0  0  0  0  0  0
    2.3566    0.1145    1.3313 C   0  0  0  0  0  0  0  0  0  0  0  0
    3.6647    0.2299    2.0242 C   0  0  0  0  0  0  0  0  0  0  0  0
    4.6987   -0.1972    1.5323 O   0  0  0  0  0  0  0  0  0  0  0  0
    3.5706    0.8802    3.2178 N   0  0  0  0  0  0  0  0  0  0  0  0
    4.7431    1.1912    3.9050 N   0  0  0  0  0  0  0  0  0  0  0  0
    5.2733    2.4499    3.7199 C   0  0  0  0  0  0  0  0  0  0  0  0
    4.4871    3.3780    3.1777 N   0  0  0  0  0  0  0  0  0  0  0  0
    6.5358    2.7359    4.2156 C   0  0  0  0  0  0  0  0  0  0  0  0
    4.9420    4.6201    3.0242 C   0  0  0  0  0  0  0  0  0  0  0  0
    7.0066    4.0289    4.0486 C   0  0  0  0  0  0  0  0  0  0  0  0
    6.2089    5.0084    3.4032 C   0  0  0  0  0  0  0  0  0  0  0  0
    8.2615    4.3432    4.4764 O   0  0  0  0  0  0  0  0  0  0  0  0
    9.0718    3.4519    5.1940 C   0  0  0  0  0  0  0  0  0  0  0  0
    8.4164    3.1361    6.5375 C   0  0  0  0  0  0  0  0  0  0  0  0
    8.7482    2.1408    7.1367 O   0  0  0  0  0  0  0  0  0  0  0  0
    7.5808    4.0331    6.9966 O   0  0  0  0  0  0  0  0  0  0  0  0
    6.9431    3.8805    8.2726 C   0  0  0  0  0  0  0  0  0  0  0  0
    5.8103    2.8572    8.2101 C   0  0  0  0  0  0  0  0  0  0  0  0
    5.0707    2.6995    9.5177 C   0  0  0  0  0  0  0  0  0  0  0  0
    5.6859    2.6326   10.7580 C   0  0  0  0  0  0  0  0  0  0  0  0
    3.6934    2.5429    9.5123 C   0  0  0  0  0  0  0  0  0  0  0  0
    4.9677    2.4377   11.9275 C   0  0  0  0  0  0  0  0  0  0  0  0
    2.9780    2.3453   10.6830 C   0  0  0  0  0  0  0  0  0  0  0  0
    3.5887    2.3012   11.8941 C   0  0  0  0  0  0  0  0  0  0  0  0
    2.8412    2.1578   13.0149 O   0  0  0  0  0  0  0  0  0  0  0  0
    1.6285    2.2360   10.7313 O   0  0  0  0  0  0  0  0  0  0  0  0
    0.8396    2.2554    9.5528 C   0  0  0  0  0  0  0  0  0  0  0  0
  2  1  2  0
  3  2  1  0
  4  1  1  0
  5  4  2  0
  6  5  1  0
  6  3  2  0
  7  6  1  0
  8  7  2  0
  9  7  1  0
 10  9  1  0
 11 10  1  0
 12 11  2  0
 13 11  1  0
 14 12  1  0
 15 13  2  0
 16 14  2  0
 16 15  1  0
 17 15  1  0
 18 17  1  0
 19 18  1  0
 20 19  2  0
 21 19  1  0
 22 21  1  0
 23 22  1  0
 24 23  1  0
 25 24  2  0
 26 24  1  0
 27 25  1  0
 28 26  2  0
 29 28  1  0
 29 27  2  0
 30 29  1  0
 31 28  1  0
 32 31  1  0
M  END
>  <SMILES>  (16) 
COc1cc(CCOC(=O)COc2ccnc(NNC(=O)c3cccnc3)c2)ccc1O

>  <scaffold>  (16) 
pyridine

$$$$

     RDKit          3D

 24 24  0  0  0  0  0  0  0  0999 V2000
    0.0000    0.0000   -0.0000 C   0  0  0  0  0  0  0  0  0  0  0  0
    0.0000   -0.0000    1.3941 C   0  0  0  0  0  0  0  0  0  0  0  0
    1.1905    0.0000    2.0728 C   0  0  0  0  0  0  0  0  0  0  0  0
    1.1922   -0.0586   -0.6891 C   0  0  0  0  0  0  0  0  0  0  0  0
    2.3654   -0.0586   -0.0117 N   0  0  0  0  0  0  0  0  0  0  0  0
    2.4345   -0.0004    1.3955 C   0  0  0  0  0  0  0  0  0  0  0  0
    3.5524    0.0418    1.9047 O   0  0  0  0  0  0  0  0  0  0  0  0
    1.2602   -0.0697    4.0024 Br  0  0  0  0  0  0  0  0  0  0  0  0
    3.6687   -0.0667   -0.7051 C   0  0  2  0  0  0  0  0  0  0  0  0
    1.1421   -0.1039   -2.0115 O   0  0  0  0  0  0  0  0  0  0  0  0
    4.4670   -1.3066   -0.3052 C   0  0  0  0  0  0  0  0  0  0  0  0
    4.4525    1.2106   -0.4075 C   0  0  0  0  0  0  0  0  0  0  0  0
    3.7219    2.4784   -0.8470 C   0  0  0  0  0  0  0  0  0  0  0  0
    4.5695    3.7207   -0.5775 C   0  0  0  0  0  0  0  0  0  0  0  0
    3.8602    5.0218   -0.9497 C   0  0  0  0  0  0  0  0  0  0  0  0
    4.7267    6.2337   -0.6109 C   0  0  0  0  0  0  0  0  0  0  0  0
    4.0391    7.5640   -0.9141 C   0  0  0  0  0  0  0  0  0  0  0  0
    4.9237    8.7415   -0.5077 C   0  0  0  0  0  0  0  0  0  0  0  0
    4.2580   10.0969   -0.7405 C   0  0  0  0  0  0  0  0  0  0  0  0
    5.1599   11.2362   -0.2684 C   0  0  0  0  0  0  0  0  0  0  0  0
    4.5162   12.6125   -0.4293 C   0  0  0  0  0  0  0  0  0  0  0  0
    5.4346   13.7097    0.1064 C   0  0  0  0  0  0  0  0  0  0  0  0
    4.8129   15.1026    0.0183 C   0  0  0  0  0  0  0  0  0  0  0  0
    5.7846   16.1610    0.5118 C   0  0  0  0  0  0  0  0  0  0  0  0
  2  1  1  0
  3  2  2  0
  4  1  2  0
  5  4  1  0
  6  5  1  0
  6  3  1  0
  7  6  2  0
  8  3  1  0
  9  5  1  0
 10  4  1  0
  9 11  1  1
 12  9  1  0
 13 12  1  0
 14 13  1  0
 15 14  1  0
 16 15  1  0
 17 16  1  0
 18 17  1  0
 19 18  1  0
 20 19  1  0
 21 20  1  0
 22 21  1  0
 23 22  1  0
 24 23  1  0
M  END
>  <SMILES>  (17) 
CCCCCCCCCCCCCC(C)n1c(O)ccc(Br)c1=O

>  <scaffold>  (17) 
pyridine

$$$$

     RDKit          3D

 26 28  0  0  0  0  0  0  0  0999 V2000
    0.0000    0.0000    0.0000 C   0  0  0  0  0  0  0  0  0  0  0  0
   -0.0000    0.0000    1.3941 C   0  0  0  0  0  0  0  0  0  0  0  0
    1.2154    0.0000    2.0607 C   0  0  0  0  0  0  0  0  0  0  0  0
    1.2320    0.0000   -0.6353 C   0  0  0  0  0  0  0  0  0  0  0  0
    2.4021    0.0000   -0.0319 N   0  0  0  0  0  0  0  0  0  0  0  0
    2.4021    0.0000    1.2922 C   0  0  0  0  0  0  0  0  0  0  0  0
   -1.4990    0.0736   -0.8665 Cl  0  0  0  0  0  0  0  0  0  0  0  0
    1.3437   -0.0531    3.4162 O   0  0  0  0  0  0  0  0  0  0  0  0
    3.6341    0.0492    1.8722 N   0  0  0  0  0  0  0  0  0  0  0  0
    0.2888    0.2615    4.2585 C   0  0  0  0  0  0  0  0  0  0  0  0
    0.0836   -0.6081    5.3495 C   0  0  0  0  0  0  0  0  0  0  0  0
   -0.4836    1.3995    4.0860 C   0  0  0  0  0  0  0  0  0  0  0  0
   -0.9345   -0.3042    6.2521 C   0  0  0  0  0  0  0  0  0  0  0  0
   -1.4855    1.6946    4.9731 C   0  0  0  0  0  0  0  0  0  0  0  0
   -1.6999    0.8325    6.0438 C   0  0  0  0  0  0  0  0  0  0  0  0
    0.9078   -1.7269    5.4614 N   0  0  0  0  0  0  0  0  0  0  0  0
    0.7861   -2.7650    6.3355 C   0  0  0  0  0  0  0  0  0  0  0  0
   -0.0785   -2.8793    7.1716 O   0  0  0  0  0  0  0  0  0  0  0  0
    1.9223   -3.7300    6.1525 C   0  0  0  0  0  0  0  0  0  0  0  0
    3.2022   -3.3929    5.7406 C   0  0  0  0  0  0  0  0  0  0  0  0
    1.6585   -5.0311    6.5513 C   0  0  0  0  0  0  0  0  0  0  0  0
    4.1766   -4.3643    5.6608 C   0  0  0  0  0  0  0  0  0  0  0  0
    2.6610   -5.9681    6.3554 C   0  0  0  0  0  0  0  0  0  0  0  0
    3.9405   -5.6929    5.9780 C   0  0  0  0  0  0  0  0  0  0  0  0
    2.3355   -7.2563    6.7216 O   0  0  0  0  0  0  0  0  0  0  0  0
    4.9223   -6.6272    5.8373 O   0  0  0  0  0  0  0  0  0  0  0  0
  2  1  2  0
  3  2  1  0
  4  1  1  0
  5  4  2  0
  6  5  1  0
  6  3  2  0
  7  1  1  0
  8  3  1  0
  9  6  1  0
 10  8  1  0
 11 10  1  0
 12 10  2  0
 13 11  2  0
 14 12  1  0
 15 14  2  0
 15 13  1  0
 16 11  1  0
 17 16  1  0
 18 17  2  0
 19 17  1  0
 20 19  2  0
 21 19  1  0
 22 20  1  0
 23 21  2  0
 24 23  1  0
 24 22  2  0
 25 23  1  0
 26 24  1  0
M  END
>  <SMILES>  (18) 
Nc1ncc(Cl)cc1Oc1ccccc1NC(=O)c1ccc(O)c(O)c1

>  <scaffold>  (18) 
pyridine

$$$$

     RDKit          3D

 32 34  0  0  0  0  0  0  0  0999 V2000
   -0.0000    0.0000    0.0000 C   0  0  0  0  0  0  0  0  0  0  0  0
   -0.0000    0.0000    1.3241 N   0  0  0  0  0  0  0  0  0  0  0  0
    1.1543    0.0000    1.9572 C   0  0  0  0  0  0  0  0  0  0  0  0
    1.1652   -0.0000   -0.7508 C   0  0  0  0  0  0  0  0  0  0  0  0
    2.3972    0.0000   -0.1155 C   0  0  0  0  0  0  0  0  0  0  0  0
    2.3972    0.0000    1.2786 C   0  0  0  0  0  0  0  0  0  0  0  0
    3.5696    0.0544    2.0309 N   0  0  0  0  0  0  0  0  0  0  0  0
    4.8567    0.1141    1.6380 C   0  0  0  0  0  0  0  0  0  0  0  0
    5.2845    0.1339    0.5009 O   0  0  0  0  0  0  0  0  0  0  0  0
    5.7744    0.2172    2.8662 C   0  0  0  0  0  0  0  0  0  0  0  0
    5.3256    0.2359    3.9878 O   0  0  0  0  0  0  0  0  0  0  0  0
    7.0693    0.2309    2.5242 N   0  0  0  0  0  0  0  0  0  0  0  0
    8.1357    0.3773    3.4726 C   0  0  0  0  0  0  0  0  0  0  0  0
    8.9040    1.6479    3.2467 C   0  0  0  0  0  0  0  0  0  0  0  0
    8.6136    2.4129    2.1961 N   0  0  0  0  0  0  0  0  0  0  0  0
    9.8764    2.0654    4.1420 C   0  0  0  0  0  0  0  0  0  0  0  0
    9.2289    3.5576    1.9854 C   0  0  0  0  0  0  0  0  0  0  0  0
   10.5245    3.2699    3.9172 C   0  0  0  0  0  0  0  0  0  0  0  0
   10.2028    4.0123    2.8480 C   0  0  0  0  0  0  0  0  0  0  0  0
   10.9553    5.6004    2.5444 S   0  0  0  0  0  6  0  0  0  0  0  0
   12.2398    5.6533    3.1433 O   0  0  0  0  0  0  0  0  0  0  0  0
   10.8086    5.9852    1.1702 O   0  0  0  0  0  0  0  0  0  0  0  0
    9.9946    6.6505    3.4081 N   0  0  0  0  0  0  0  0  0  0  0  0
   10.4286    7.1534    4.6704 C   0  0  2  0  0  0  0  0  0  0  0  0
    9.4207    7.5588    5.6949 C   0  0  0  0  0  0  0  0  0  0  0  0
   10.1935    8.6038    4.9422 C   0  0  1  0  0  0  0  0  0  0  0  0
   11.2838    9.3633    5.6235 C   0  0  0  0  0  0  0  0  0  0  0  0
   11.9503    8.8558    6.5229 O   0  0  0  0  0  0  0  0  0  0  0  0
   11.4807   10.6226    5.1419 N   0  0  0  0  0  0  0  0  0  0  0  0
   12.4414   11.5622    5.5131 C   0  0  0  0  0  0  0  0  0  0  0  0
   12.4043   12.6939    4.8122 N   0  0  0  0  0  0  0  0  0  0  0  0
   13.3270   11.3918    6.5866 C   0  0  0  0  0  0  0  0  0  0  0  0
  2  1  2  0
  3  2  1  0
  4  1  1  0
  5  4  2  0
  6  5  1  0
  6  3  2  0
  7  6  1  0
  8  7  2  0
  9  8  1  0
 10  8  1  0
 11 10  2  0
 12 10  1  0
 13 12  1  0
 14 13  1  0
 15 14  2  0
 16 14  1  0
 17 15  1  0
 18 16  2  0
 19 18  1  0
 19 17  2  0
 20 19  1  0
 21 20  2  0
 22 20  2  0
 23 20  1  0
 24 23  1  6
 25 24  1  0
 26 25  1  0
 26 24  1  0
 26 27  1  1
 28 27  2  0
 29 27  1  0
 30 29  1  0
 31 30  2  0
 32 30  1  0
M  CHG  2   9  -1  31   1
M  END
>  <SMILES>  (19) 
CC(=[NH2+])NC(=O)C1CC1NS(=O)(=O)c1ccc(CNC(=O)C([O-])=Nc2cccnc2)nc1

>  <scaffold>  (19) 
pyridine

$$$$

     RDKit          3D

 26 27  0  0  0  0  0  0  0  0999 V2000
    0.0000    0.0000   -0.0000 C   0  0  0  0  0  0  0  0  0  0  0  0
   -0.0000    0.0000    1.3241 N   0  0  0  0  0  0  0  0  0  0  0  0
    1.1543   -0.0000    1.9572 C   0  0  0  0  0  0  0  0  0  0  0  0
    1.1652   -0.0000   -0.7508 C   0  0  0  0  0  0  0  0  0  0  0  0
    2.3972    0.0000   -0.1155 C   0  0  0  0  0  0  0  0  0  0  0  0
    2.3972    0.0000    1.2786 C   0  0  0  0  0  0  0  0  0  0  0  0
    3.5696    0.0544    2.0309 N   0  0  0  0  0  0  0  0  0  0  0  0
    4.8567    0.1141    1.6380 C   0  0  0  0  0  0  0  0  0  0  0  0
    5.2796    0.1337    0.5138 O   0  0  0  0  0  0  0  0  0  0  0  0
    5.8111    0.1028    2.6651 N   0  0  0  0  0  0  0  0  0  0  0  0
    5.5680    0.0379    4.0122 C   0  0  0  0  0  0  0  0  0  0  0  0
    4.4762   -0.0211    4.5423 O   0  0  0  0  0  0  0  0  0  0  0  0
    6.7529   -0.0046    4.6835 N   0  0  0  0  0  0  0  0  0  0  0  0
    6.6483    0.2005    6.3713 S   0  0  0  0  0  6  0  0  0  0  0  0
    7.9699   -0.1524    6.7757 O   0  0  0  0  0  0  0  0  0  0  0  0
    6.1164    1.4805    6.6715 O   0  0  0  0  0  0  0  0  0  0  0  0
    5.4738   -1.0132    6.8768 C   0  0  0  0  0  0  0  0  0  0  0  0
    4.2054   -0.6503    7.2757 C   0  0  0  0  0  0  0  0  0  0  0  0
    5.8184   -2.3516    6.7693 C   0  0  0  0  0  0  0  0  0  0  0  0
    3.3060   -1.6378    7.6152 C   0  0  0  0  0  0  0  0  0  0  0  0
    4.9096   -3.3419    7.1077 C   0  0  0  0  0  0  0  0  0  0  0  0
    3.6425   -2.9861    7.5039 C   0  0  0  0  0  0  0  0  0  0  0  0
    2.6699   -3.8532    7.8135 O   0  0  0  0  0  0  0  0  0  0  0  0
    2.9475   -5.2280    7.6676 C   0  0  0  0  0  0  0  0  0  0  0  0
    2.8855   -5.6792    6.2092 C   0  0  0  0  0  0  0  0  0  0  0  0
    1.4992   -5.4293    5.5734 C   0  0  0  0  0  0  0  0  0  0  0  0
  2  1  2  0
  3  2  1  0
  4  1  1  0
  5  4  2  0
  6  5  1  0
  6  3  2  0
  7  6  1  0
  8  7  1  0
  9  8  2  0
 10  8  1  0
 11 10  1  0
 12 11  2  0
 13 11  1  0
 14 13  1  0
 15 14  2  0
 16 14  2  0
 17 14  1  0
 18 17  2  0
 19 17  1  0
 20 18  1  0
 21 19  2  0
 22 21  1  0
 22 20  2  0
 23 22  1  0
 24 23  1  0
 25 24  1  0
 26 25  1  0
M  END
>  <SMILES>  (20) 
CCCOc1ccc(S(=O)(=O)NC(=O)NC(=O)Nc2cccnc2)cc1

>  <scaffold>  (20) 
pyridine

$$$$

     RDKit          3D

 28 29  0  0  0  0  0  0  0  0999 V2000
    0.0000    0.0000    0.0000 C   0  0  0  0  0  0  0  0  0  0  0  0
    0.0000    0.0000    1.3241 N   0  0  0  0  0  0  0  0  0  0  0  0
    1.1346    0.0000    2.0213 C   0  0  0  0  0  0  0  0  0  0  0  0
    1.1854   -0.0000   -0.7638 C   0  0  0  0  0  0  0  0  0  0  0  0
    2.3775   -0.0586   -0.0747 C   0  0  0  0  0  0  0  0  0  0  0  0
    2.3768   -0.1152    1.3343 C   0  0  0  0  0  0  0  0  0  0  0  0
   -1.1972   -0.0000   -0.6174 N   0  0  0  0  0  0  0  0  0  0  0  0
    3.5500   -0.2186    1.9558 O   0  0  0  0  0  0  0  0  0  0  0  0
    1.0860    0.0486    3.3666 N   0  0  0  0  0  0  0  0  0  0  0  0
    3.5945   -0.1121   -0.8010 N   0  0  0  0  0  0  0  0  0  0  0  0
    4.6189    0.8189   -0.6352 C   0  0  0  0  0  0  0  0  0  0  0  0
    5.6810    0.6699   -1.1916 O   0  0  0  0  0  0  0  0  0  0  0  0
    4.3371    1.9011    0.1431 N   0  0  0  0  0  0  0  0  0  0  0  0
    5.1375    2.9676    0.5498 C   0  0  0  0  0  0  0  0  0  0  0  0
    6.5044    3.0068    0.2784 C   0  0  0  0  0  0  0  0  0  0  0  0
    4.5912    4.0567    1.2274 C   0  0  0  0  0  0  0  0  0  0  0  0
    7.2687    4.0645    0.7460 C   0  0  0  0  0  0  0  0  0  0  0  0
    5.3588    5.1214    1.6972 C   0  0  0  0  0  0  0  0  0  0  0  0
    6.6608    5.1214    1.4384 C   0  0  0  0  0  0  0  0  0  0  0  0
    8.7617    4.1264    0.5256 C   0  0  0  0  0  0  0  0  0  0  0  0
    9.2959    3.2396   -0.4081 O   0  0  0  0  0  0  0  0  0  0  0  0
    9.0799    3.6679   -1.7514 C   0  0  0  0  0  0  0  0  0  0  0  0
   10.1370    4.6761   -2.1991 C   0  0  0  0  0  0  0  0  0  0  0  0
    9.9186    5.2081   -3.6146 C   0  0  0  0  0  0  0  0  0  0  0  0
   10.9690    6.2512   -3.9929 C   0  0  0  0  0  0  0  0  0  0  0  0
   10.8272    6.7755   -5.4209 C   0  0  0  0  0  0  0  0  0  0  0  0
   11.9318    7.7729   -5.7665 C   0  0  0  0  0  0  0  0  0  0  0  0
   11.8034    8.3690   -7.1674 C   0  0  0  0  0  0  0  0  0  0  0  0
  2  1  2  0
  3  2  1  0
  4  1  1  0
  5  4  2  0
  6  5  1  0
  6  3  2  0
  7  1  1  0
  8  6  1  0
  9  3  1  0
 10  5  1  0
 11 10  1  0
 12 11  2  0
 13 11  1  0
 14 13  1  0
 15 14  2  0
 16 14  1  0
 17 15  1  0
 18 16  2  0
 19 18  1  0
 19 17  2  0
 20 17  1  0
 21 20  1  0
 22 21  1  0
 23 22  1  0
 24 23  1  0
 25 24  1  0
 26 25  1  0
 27 26  1  0
 28 27  1  0
M  END
>  <SMILES>  (21) 
CCCCCCCOCc1cccc(NC(=O)Nc2cc(N)nc(N)c2O)c1

>  <scaffold>  (21) 
pyridine

$$$$

     RDKit          3D

 30 32  0  0  0  0  0  0  0  0999 V2000
    0.0000   -0.0000    0.0000 C   0  0  0  0  0  0  0  0  0  0  0  0
    0.0000    0.0000    1.3317 N   0  0  0  0  0  0  0  0  0  0  0  0
    1.1543    0.0000    1.9648 C   0  0  0  0  0  0  0  0  0  0  0  0
    1.1719   -0.0000   -0.7551 C   0  0  0  0  0  0  0  0  0  0  0  0
    2.4039   -0.0000   -0.1198 C   0  0  0  0  0  0  0  0  0  0  0  0
    2.4039    0.0000    1.2663 C   0  0  0  0  0  0  0  0  0  0  0  0
   -1.2924    0.0000   -0.5228 N   0  0  0  0  0  0  0  0  0  0  0  0
   -1.7011    0.0538   -1.8215 C   0  0  0  0  0  0  0  0  0  0  0  0
   -0.9373    0.1133   -2.7646 O   0  0  0  0  0  0  0  0  0  0  0  0
   -3.1644    0.0933   -2.0127 C   0  0  0  0  0  0  0  0  0  0  0  0
   -3.7806    0.3021   -3.2098 C   0  0  0  0  0  0  0  0  0  0  0  0
   -4.3252   -0.1444   -0.7481 S   0  0  0  0  0  0  0  0  0  0  0  0
   -5.1706    0.2377   -3.1247 C   0  0  0  0  0  0  0  0  0  0  0  0
   -5.6494    0.0012   -1.8565 C   0  0  0  0  0  0  0  0  0  0  0  0
   -7.0973   -0.0438   -1.4602 C   0  0  0  0  0  0  0  0  0  0  0  0
   -7.9369   -0.5998   -2.4589 O   0  0  0  0  0  0  0  0  0  0  0  0
   -7.7908   -1.9359   -2.7260 C   0  0  0  0  0  0  0  0  0  0  0  0
   -7.0258   -2.6451   -2.1165 O   0  0  0  0  0  0  0  0  0  0  0  0
   -8.5972   -2.3342   -3.7185 N   0  0  0  0  0  0  0  0  0  0  0  0
   -8.7399   -3.6981   -4.2179 C   0  0  0  0  0  0  0  0  0  0  0  0
   -7.3860   -4.1393   -4.7953 C   0  0  0  0  0  0  0  0  0  0  0  0
   -9.8072   -3.7102   -5.3112 C   0  0  0  0  0  0  0  0  0  0  0  0
   -9.1926   -4.5897   -3.0627 C   0  0  0  0  0  0  0  0  0  0  0  0
  -10.2113   -4.1753   -2.2060 C   0  0  0  0  0  0  0  0  0  0  0  0
   -8.6424   -5.8474   -2.8196 C   0  0  0  0  0  0  0  0  0  0  0  0
  -10.6166   -4.9186   -1.1284 C   0  0  0  0  0  0  0  0  0  0  0  0
   -9.0487   -6.5953   -1.7356 C   0  0  0  0  0  0  0  0  0  0  0  0
  -10.0030   -6.1481   -0.8497 C   0  0  0  0  0  0  0  0  0  0  0  0
  -10.4500   -6.7619    0.2629 O   0  0  0  0  0  0  0  0  0  0  0  0
   -9.8630   -8.0002    0.6873 C   0  0  0  0  0  0  0  0  0  0  0  0
  2  1  2  0
  3  2  1  0
  4  1  1  0
  5  4  2  0
  6  5  1  0
  6  3  2  0
  7  1  1  0
  8  7  1  0
  9  8  2  0
 10  8  1  0
 11 10  2  0
 12 10  1  0
 13 11  1  0
 14 13  2  0
 14 12  1  0
 15 14  1  0
 16 15  1  0
 17 16  1  0
 18 17  2  0
 19 17  1  0
 20 19  1  0
 21 20  1  0
 22 20  1  0
 23 20  1  0
 24 23  2  0
 25 23  1  0
 26 24  1  0
 27 25  2  0
 28 27  1  0
 28 26  2  0
 29 28  1  0
 30 29  1  0
M  END
>  <SMILES>  (22) 
COc1ccc(C(C)(C)NC(=O)OCc2ccc(C(=O)Nc3ccccn3)s2)cc1

>  <scaffold>  (22) 
pyridine

$$$$

     RDKit          3D

 26 28  0  0  0  0  0  0  0  0999 V2000
    0.0000   -0.0000    0.0000 C   0  0  0  0  0  0  0  0  0  0  0  0
    0.0000    0.0000    1.3625 N   0  0  0  0  0  0  0  0  0  0  0  0
    1.2084    0.0000    2.1051 C   0  0  0  0  0  0  0  0  0  0  0  0
    1.1853   -0.0582   -0.6852 C   0  0  0  0  0  0  0  0  0  0  0  0
    2.4372   -0.1197   -0.0389 C   0  0  0  0  0  0  0  0  0  0  0  0
    2.5025   -0.1229    1.3378 C   0  0  0  0  0  0  0  0  0  0  0  0
   -1.0202    0.0501    2.2761 C   0  0  0  0  0  0  0  0  0  0  0  0
   -0.4856    0.0764    3.5039 C   0  0  0  0  0  0  0  0  0  0  0  0
    0.8983    0.0966    3.4264 N   0  0  0  0  0  0  0  0  0  0  0  0
    3.6635   -0.1319    1.9901 F   0  0  0  0  0  0  0  0  0  0  0  0
    3.6620   -0.1298   -0.6877 N   0  0  0  0  0  0  0  0  0  0  0  0
   -1.2972    0.2106    5.0517 S   0  0  0  0  0  0  0  0  0  0  0  0
    0.0068   -0.1618    6.2724 C   0  0  0  0  0  0  0  0  0  0  0  0
    0.4385   -1.6183    6.2666 C   0  0  0  0  0  0  0  0  0  0  0  0
    1.5676   -1.8654    7.2659 C   0  0  0  0  0  0  0  0  0  0  0  0
    2.0759   -3.3062    7.2597 C   0  0  0  0  0  0  0  0  0  0  0  0
    3.2315   -3.4860    8.2293 C   0  0  0  0  0  0  0  0  0  0  0  0
    4.3831   -3.5586    7.8714 O   0  0  0  0  0  0  0  0  0  0  0  0
    2.8442   -3.4487    9.5270 N   0  0  0  0  0  0  0  0  0  0  0  0
    3.7878   -3.4352   10.6185 C   0  0  0  0  0  0  0  0  0  0  0  0
    3.6130   -2.2007   11.4402 C   0  0  0  0  0  0  0  0  0  0  0  0
    3.6853   -0.8744   11.1362 C   0  0  0  0  0  0  0  0  0  0  0  0
    3.3083   -2.3632   12.7502 O   0  0  0  0  0  0  0  0  0  0  0  0
    3.3696   -0.1806   12.3322 C   0  0  0  0  0  0  0  0  0  0  0  0
    3.1554   -1.1353   13.2426 C   0  0  0  0  0  0  0  0  0  0  0  0
    2.8659   -1.0132   14.7112 C   0  0  0  0  0  0  0  0  0  0  0  0
  2  1  1  0
  3  2  1  0
  4  1  2  0
  5  4  1  0
  6  5  1  0
  6  3  2  0
  7  2  1  0
  8  7  2  0
  9  8  1  0
  9  3  1  0
 10  6  1  0
 11  5  1  0
 12  8  1  0
 13 12  1  0
 14 13  1  0
 15 14  1  0
 16 15  1  0
 17 16  1  0
 18 17  2  0
 19 17  1  0
 20 19  1  0
 21 20  1  0
 22 21  1  0
 23 21  2  0
 24 22  2  0
 25 24  1  0
 25 23  1  0
 26 25  2  0
M  CHG  2   5  -1  23   1
M  END
>  <SMILES>  (23) 
C=C1C=CC(CNC(=O)CCCCSC2=CN3C=C[C-](N)C(F)=C3N2)=[O+]1

>  <scaffold>  (23) 
pyridine

$$$$

     RDKit          3D

 28 31  0  0  0  0  0  0  0  0999 V2000
   -0.0000    0.0000    0.0000 C   0  0  0  0  0  0  0  0  0  0  0  0
    0.0000   -0.0000    1.3015 N   0  0  0  0  0  0  0  0  0  0  0  0
    1.1811    0.0000    1.9493 C   0  0  0  0  0  0  0  0  0  0  0  0
    1.1786   -0.0000   -0.7595 C   0  0  0  0  0  0  0  0  0  0  0  0
    2.3966    0.0000   -0.1314 C   0  0  0  0  0  0  0  0  0  0  0  0
    2.3966    0.0000    1.2869 C   0  0  0  0  0  0  0  0  0  0  0  0
    3.5690   -0.0544    2.0392 C   0  0  0  0  0  0  0  0  0  0  0  0
    3.5216   -0.0024    3.4156 C   0  0  0  0  0  0  0  0  0  0  0  0
    2.2842    0.0463    4.0559 C   0  0  0  0  0  0  0  0  0  0  0  0
    1.0956    0.0456    3.3897 C   0  0  0  0  0  0  0  0  0  0  0  0
    5.0236   -0.0118    4.2999 Cl  0  0  0  0  0  0  0  0  0  0  0  0
    3.9111    0.0636   -1.0317 S   0  0  0  0  0  0  0  0  0  0  0  0
    3.4458   -0.2073   -2.7533 C   0  0  0  0  0  0  0  0  0  0  0  0
    2.9649   -1.4393   -3.1944 C   0  0  0  0  0  0  0  0  0  0  0  0
    3.7445    0.8070   -3.6495 C   0  0  0  0  0  0  0  0  0  0  0  0
    2.6669   -1.6145   -4.5368 C   0  0  0  0  0  0  0  0  0  0  0  0
    3.4523    0.6241   -4.9840 C   0  0  0  0  0  0  0  0  0  0  0  0
    2.9003   -0.5891   -5.4520 C   0  0  0  0  0  0  0  0  0  0  0  0
    2.5837   -0.6963   -6.7489 O   0  0  0  0  0  0  0  0  0  0  0  0
    2.7951   -2.4395   -2.2732 O   0  0  0  0  0  0  0  0  0  0  0  0
    2.0407   -1.8871   -7.3162 C   0  0  0  0  0  0  0  0  0  0  0  0
    3.1206   -2.9536   -7.4917 C   0  0  0  0  0  0  0  0  0  0  0  0
    2.4902   -4.2015   -8.0402 C   0  0  0  0  0  0  0  0  0  0  0  0
    2.6318   -4.5818   -9.3573 C   0  0  0  0  0  0  0  0  0  0  0  0
    1.7265   -5.0256   -7.2284 C   0  0  0  0  0  0  0  0  0  0  0  0
    1.9939   -5.7096   -9.8271 C   0  0  0  0  0  0  0  0  0  0  0  0
    1.0848   -6.1597   -7.7011 C   0  0  0  0  0  0  0  0  0  0  0  0
    1.1899   -6.5076   -9.0145 C   0  0  0  0  0  0  0  0  0  0  0  0
  2  1  2  0
  3  2  1  0
  4  1  1  0
  5  4  2  0
  6  5  1  0
  6  3  2  0
  7  6  1  0
  8  7  2  0
  9  8  1  0
 10  9  2  0
 10  3  1  0
 11  8  1  0
 12  5  1  0
 13 12  1  0
 14 13  2  0
 15 13  1  0
 16 14  1  0
 17 15  2  0
 18 17  1  0
 18 16  2  0
 19 18  1  0
 20 14  1  0
 21 19  1  0
 22 21  1  0
 23 22  1  0
 24 23  2  0
 25 23  1  0
 26 24  1  0
 27 25  2  0
 28 27  1  0
 28 26  2  0
M  END
>  <SMILES>  (24) 
Oc1cc(OCCc2ccccc2)ccc1Sc1ccnc2ccc(Cl)cc12

>  <scaffold>  (24) 
pyridine

$$$$

     RDKit          3D

 28 30  0  0  0  0  0  0  0  0999 V2000
    0.0000   -0.0000    0.0000 C   0  0  0  0  0  0  0  0  0  0  0  0
   -0.0000    0.0000    1.3941 C   0  0  0  0  0  0  0  0  0  0  0  0
    1.2042   -0.0000    2.0806 C   0  0  0  0  0  0  0  0  0  0  0  0
    1.2533   -0.0000   -0.6463 C   0  0  0  0  0  0  0  0  0  0  0  0
    2.4168    0.0000   -0.0464 N   0  0  0  0  0  0  0  0  0  0  0  0
    2.4168   -0.0000    1.2777 C   0  0  0  0  0  0  0  0  0  0  0  0
    1.4147    0.0668   -2.3506 Cl  0  0  0  0  0  0  0  0  0  0  0  0
   -1.1585    0.0000   -0.7465 N   0  0  0  0  0  0  0  0  0  0  0  0
   -2.4556    0.1277   -0.3491 C   0  0  0  0  0  0  0  0  0  0  0  0
   -2.8218    0.3253    0.7705 O   0  0  0  0  0  0  0  0  0  0  0  0
   -3.2616    0.0182   -1.4132 O   0  0  0  0  0  0  0  0  0  0  0  0
   -4.6477    0.0583   -1.2698 C   0  0  0  0  0  0  0  0  0  0  0  0
   -5.2723    0.9141   -0.3759 C   0  0  0  0  0  0  0  0  0  0  0  0
   -5.4143   -0.7822   -2.0894 C   0  0  0  0  0  0  0  0  0  0  0  0
   -6.6560    0.9535   -0.3038 C   0  0  0  0  0  0  0  0  0  0  0  0
   -6.7901   -0.7412   -2.0177 C   0  0  0  0  0  0  0  0  0  0  0  0
   -7.4149    0.1789   -1.1672 C   0  0  0  0  0  0  0  0  0  0  0  0
   -8.7839    0.1724   -1.2283 O   0  0  0  0  0  0  0  0  0  0  0  0
   -9.6374    0.7030   -0.3197 C   0  0  0  0  0  0  0  0  0  0  0  0
   -9.2868    1.2100    0.7034 O   0  0  0  0  0  0  0  0  0  0  0  0
  -11.0560    0.5648   -0.7354 C   0  0  0  0  0  0  0  0  0  0  0  0
  -11.4819    0.3526   -2.0628 C   0  0  0  0  0  0  0  0  0  0  0  0
  -12.0273    0.6256    0.2629 C   0  0  0  0  0  0  0  0  0  0  0  0
  -12.8481    0.2929   -2.3340 C   0  0  0  0  0  0  0  0  0  0  0  0
  -13.3638    0.4584    0.0106 C   0  0  0  0  0  0  0  0  0  0  0  0
  -13.7863    0.3810   -1.3066 C   0  0  0  0  0  0  0  0  0  0  0  0
  -10.5504    0.2684   -3.0215 O   0  0  0  0  0  0  0  0  0  0  0  0
  -10.8490    0.1138   -4.3827 C   0  0  0  0  0  0  0  0  0  0  0  0
  2  1  2  0
  3  2  1  0
  4  1  1  0
  5  4  2  0
  6  5  1  0
  6  3  2  0
  7  4  1  0
  8  1  1  0
  9  8  1  0
 10  9  2  0
 11  9  1  0
 12 11  1  0
 13 12  2  0
 14 12  1  0
 15 13  1  0
 16 14  2  0
 17 16  1  0
 17 15  2  0
 18 17  1  0
 19 18  1  0
 20 19  2  0
 21 19  1  0
 22 21  2  0
 23 21  1  0
 24 22  1  0
 25 23  2  0
 26 25  1  0
 26 24  2  0
 27 22  1  0
 28 27  1  0
M  END
>  <SMILES>  (25) 
COc1ccccc1C(=O)Oc1ccc(OC(=O)Nc2cccnc2Cl)cc1

>  <scaffold>  (25) 
pyridine

$$$$

     RDKit          3D

 30 31  0  0  0  0  0  0  0  0999 V2000
   -0.0000   -0.0000   -0.0000 C   0  0  0  0  0  0  0  0  0  0  0  0
   -0.0000   -0.0000    1.3862 C   0  0  0  0  0  0  0  0  0  0  0  0
    1.1996    0.0000    2.0964 C   0  0  0  0  0  0  0  0  0  0  0  0
    1.2462    0.0000   -0.6426 C   0  0  0  0  0  0  0  0  0  0  0  0
    2.3656    0.0000    0.0787 N   0  0  0  0  0  0  0  0  0  0  0  0
    2.3656    0.0000    1.3952 C   0  0  0  0  0  0  0  0  0  0  0  0
    1.2505    0.0509    3.5047 C   0  0  0  0  0  0  0  0  0  0  0  0
    1.2936    0.0915    4.6311 N   0  0  0  0  0  0  0  0  0  0  0  0
    1.2953    0.0492   -2.0034 N   0  0  0  0  0  0  0  0  0  0  0  0
    3.5227   -0.0486    2.0831 N   0  0  0  0  0  0  0  0  0  0  0  0
    4.8073    0.2164    1.4819 C   0  0  0  0  0  0  0  0  0  0  0  0
    5.3247    1.5671    1.9466 C   0  0  0  0  0  0  0  0  0  0  0  0
    5.6449    1.6146    3.7529 S   0  0  0  0  0  0  0  0  0  0  0  0
    4.0319    1.9968    4.4377 C   0  0  0  0  0  0  0  0  0  0  0  0
    3.2055    3.0070    3.9709 C   0  0  0  0  0  0  0  0  0  0  0  0
    3.5952    1.2637    5.5301 C   0  0  0  0  0  0  0  0  0  0  0  0
    1.9941    3.2957    4.5614 C   0  0  0  0  0  0  0  0  0  0  0  0
    2.3913    1.5531    6.1171 C   0  0  0  0  0  0  0  0  0  0  0  0
    1.5556    2.5728    5.6598 C   0  0  0  0  0  0  0  0  0  0  0  0
    0.4142    2.7964    6.3546 O   0  0  0  0  0  0  0  0  0  0  0  0
   -0.4694    3.8085    5.9264 C   0  0  0  0  0  0  0  0  0  0  0  0
   -1.2922    3.3710    4.7156 C   0  0  0  0  0  0  0  0  0  0  0  0
   -2.2692    4.4792    4.3263 C   0  0  0  0  0  0  0  0  0  0  0  0
   -3.1556    4.0688    3.1515 C   0  0  0  0  0  0  0  0  0  0  0  0
   -4.1482    5.1872    2.8378 C   0  0  0  0  0  0  0  0  0  0  0  0
   -5.0962    4.8032    1.7028 C   0  0  0  0  0  0  0  0  0  0  0  0
   -6.0946    5.9236    1.4672 C   0  0  2  0  0  0  0  0  0  0  0  0
   -7.1760    6.1977    2.8847 Cl  0  0  0  0  0  0  0  0  0  0  0  0
   -6.9196    5.5495    0.2368 C   0  0  0  0  0  0  0  0  0  0  0  0
   -7.8447    6.7086   -0.1307 C   0  0  0  0  0  0  0  0  0  0  0  0
  2  1  2  0
  3  2  1  0
  4  1  1  0
  5  4  2  0
  6  5  1  0
  6  3  2  0
  7  3  1  0
  8  7  3  0
  9  4  1  0
 10  6  1  0
 11 10  1  0
 12 11  1  0
 13 12  1  0
 14 13  1  0
 15 14  2  0
 16 14  1  0
 17 15  1  0
 18 16  2  0
 19 17  2  0
 19 18  1  0
 20 19  1  0
 21 20  1  0
 22 21  1  0
 23 22  1  0
 24 23  1  0
 25 24  1  0
 26 25  1  0
 27 26  1  0
 27 28  1  1
 29 27  1  0
 30 29  1  0
M  END
>  <SMILES>  (26) 
CCC(Cl)CCCCCCOc1ccc(SCCNc2nc(N)ccc2C#N)cc1

>  <scaffold>  (26) 
pyridine

$$$$

     RDKit          3D

 20 21  0  0  0  0  0  0  0  0999 V2000
   -0.0000   -0.0000   -0.0000 C   0  0  0  0  0  0  0  0  0  0  0  0
   -0.0000   -0.0000    1.4021 C   0  0  0  0  0  0  0  0  0  0  0  0
    1.1675    0.0000    2.1196 C   0  0  0  0  0  0  0  0  0  0  0  0
    1.2110   -0.0000   -0.6245 C   0  0  0  0  0  0  0  0  0  0  0  0
    2.3762   -0.0572    0.0490 N   0  0  0  0  0  0  0  0  0  0  0  0
    2.4407   -0.0590    1.4416 C   0  0  0  0  0  0  0  0  0  0  0  0
    3.5522   -0.0660    1.9498 O   0  0  0  0  0  0  0  0  0  0  0  0
    1.2944    0.0525    3.4596 O   0  0  0  0  0  0  0  0  0  0  0  0
    3.6378   -0.0096   -0.5422 N   0  0  0  0  0  0  0  0  0  0  0  0
    0.1091    0.0522    4.2532 C   0  0  0  0  0  0  0  0  0  0  0  0
   -0.5066   -1.3415    4.3661 C   0  0  0  0  0  0  0  0  0  0  0  0
   -1.7993   -1.2780    5.1781 C   0  0  0  0  0  0  0  0  0  0  0  0
   -2.4316   -2.5353    5.2669 O   0  0  0  0  0  0  0  0  0  0  0  0
   -1.9293   -3.4544    6.1384 C   0  0  0  0  0  0  0  0  0  0  0  0
   -0.9193   -3.3089    7.0883 C   0  0  0  0  0  0  0  0  0  0  0  0
   -2.5636   -4.7074    6.0114 C   0  0  0  0  0  0  0  0  0  0  0  0
   -0.5284   -4.3194    7.9655 C   0  0  0  0  0  0  0  0  0  0  0  0
   -2.1794   -5.7007    6.8738 C   0  0  0  0  0  0  0  0  0  0  0  0
   -1.1631   -5.5324    7.9044 C   0  0  0  0  0  0  0  0  0  0  0  0
   -0.8349   -6.6102    8.6707 O   0  0  0  0  0  0  0  0  0  0  0  0
  2  1  1  0
  3  2  2  0
  4  1  2  0
  5  4  1  0
  6  5  1  0
  6  3  1  0
  7  6  2  0
  8  3  1  0
  9  5  1  0
 10  8  1  0
 11 10  1  0
 12 11  1  0
 13 12  1  0
 14 13  1  0
 15 14  2  0
 16 14  1  0
 17 15  1  0
 18 16  2  0
 19 18  1  0
 19 17  2  0
 20 19  1  0
M  END
>  <SMILES>  (27) 
Nn1cccc(OCCCOc2ccc(O)cc2)c1=O

>  <scaffold>  (27) 
pyridine

$$$$

     RDKit          3D

 28 30  0  0  0  0  0  0  0  0999 V2000
   -0.0000   -0.0000    0.0000 C   0  0  0  0  0  0  0  0  0  0  0  0
   -0.0000    0.0000    1.3470 N   0  0  0  0  0  0  0  0  0  0  0  0
    1.1698   -0.0000    2.1200 C   0  0  0  0  0  0  0  0  0  0  0  0
    1.1453   -0.0000   -0.7380 C   0  0  0  0  0  0  0  0  0  0  0  0
    2.3582    0.0596   -0.0370 C   0  0  0  0  0  0  0  0  0  0  0  0
    2.3574    0.1146    1.3323 C   0  0  0  0  0  0  0  0  0  0  0  0
    1.1262   -0.0436    3.3266 O   0  0  0  0  0  0  0  0  0  0  0  0
    3.5673    0.1223    1.9758 O   0  0  0  0  0  0  0  0  0  0  0  0
    3.7333    0.9428    3.0509 C   0  0  0  0  0  0  0  0  0  0  0  0
    4.6134    0.5364    4.0418 C   0  0  0  0  0  0  0  0  0  0  0  0
    3.0747    2.1568    3.1677 C   0  0  0  0  0  0  0  0  0  0  0  0
    4.8521    1.3609    5.1301 C   0  0  0  0  0  0  0  0  0  0  0  0
    3.3133    2.9805    4.2568 C   0  0  0  0  0  0  0  0  0  0  0  0
    4.1704    2.5611    5.2582 C   0  0  0  0  0  0  0  0  0  0  0  0
    2.5303    4.2676    4.3644 C   0  0  0  0  0  0  0  0  0  0  0  0
    2.2042    4.8480    3.3561 O   0  0  0  0  0  0  0  0  0  0  0  0
    2.1771    4.6286    5.6048 N   0  0  0  0  0  0  0  0  0  0  0  0
    1.3741    5.7850    5.9898 C   0  0  2  0  0  0  0  0  0  0  0  0
    1.1659    5.7824    7.4946 C   0  0  0  0  0  0  0  0  0  0  0  0
    0.6543    4.6377    8.1040 C   0  0  0  0  0  0  0  0  0  0  0  0
    1.5084    6.8335    8.3177 C   0  0  0  0  0  0  0  0  0  0  0  0
    0.4947    4.5715    9.4714 C   0  0  0  0  0  0  0  0  0  0  0  0
    1.3446    6.7655    9.6925 C   0  0  0  0  0  0  0  0  0  0  0  0
    0.8335    5.6329   10.2961 C   0  0  0  0  0  0  0  0  0  0  0  0
    0.0188    5.6692    5.2939 C   0  0  0  0  0  0  0  0  0  0  0  0
    2.0831    7.0398    5.4827 C   0  0  0  0  0  0  0  0  0  0  0  0
    0.6141    5.5404   11.6298 F   0  0  0  0  0  0  0  0  0  0  0  0
    3.5177    7.2302    5.9725 C   0  0  0  0  0  0  0  0  0  0  0  0
  2  1  1  0
  3  2  1  0
  4  1  2  0
  5  4  1  0
  6  5  2  0
  6  3  1  0
  7  3  2  0
  8  6  1  0
  9  8  1  0
 10  9  2  0
 11  9  1  0
 12 10  1  0
 13 11  2  0
 14 13  1  0
 14 12  2  0
 15 13  1  0
 16 15  2  0
 17 15  1  0
 18 17  1  0
 19 18  1  0
 20 19  2  0
 21 19  1  0
 22 20  1  0
 23 21  2  0
 24 22  2  0
 24 23  1  0
 18 25  1  6
 26 18  1  0
 27 24  1  0
 28 26  1  0
M  END
>  <SMILES>  (28) 
CCC(C)(NC(=O)c1cccc(Oc2ccc[nH]c2=O)c1)c1ccc(F)cc1

>  <scaffold>  (28) 
pyridine

$$$$

     RDKit          3D

 26 27  0  0  0  0  0  0  0  0999 V2000
    0.0000   -0.0000    0.0000 C   0  0  0  0  0  0  0  0  0  0  0  0
    0.0000   -0.0000    1.3941 C   0  0  0  0  0  0  0  0  0  0  0  0
    1.2154    0.0000    2.0607 C   0  0  0  0  0  0  0  0  0  0  0  0
    1.2391   -0.0000   -0.6390 C   0  0  0  0  0  0  0  0  0  0  0  0
    2.4159   -0.0000   -0.0321 N   0  0  0  0  0  0  0  0  0  0  0  0
    2.4159    0.0000    1.2920 C   0  0  0  0  0  0  0  0  0  0  0  0
   -1.2697   -0.0000   -0.8182 C   0  0  0  0  0  0  0  0  0  0  0  0
   -2.3421   -0.7165   -0.1531 N   0  0  0  0  0  0  0  0  0  0  0  0
   -2.3151   -2.0696   -0.0908 C   0  0  0  0  0  0  0  0  0  0  0  0
   -1.2538   -3.0268   -0.9072 S   0  0  0  0  0  0  0  0  0  0  0  0
   -3.2911   -2.5935    0.6756 N   0  0  0  0  0  0  0  0  0  0  0  0
   -3.5554   -4.0096    0.7570 C   0  0  0  0  0  0  0  0  0  0  0  0
   -4.6413   -4.3733   -0.2147 C   0  0  0  0  0  0  0  0  0  0  0  0
   -5.9588   -4.5160    0.1919 C   0  0  0  0  0  0  0  0  0  0  0  0
   -4.3458   -4.6227   -1.5458 C   0  0  0  0  0  0  0  0  0  0  0  0
   -6.9231   -4.8009   -0.7392 C   0  0  0  0  0  0  0  0  0  0  0  0
   -5.2976   -4.9062   -2.4673 C   0  0  0  0  0  0  0  0  0  0  0  0
   -6.6466   -4.9626   -2.1292 C   0  0  0  0  0  0  0  0  0  0  0  0
   -7.6343   -5.1948   -3.0152 N   0  0  0  0  0  0  0  0  0  0  0  0
   -7.5720   -5.3278   -4.4423 C   0  0  0  0  0  0  0  0  0  0  0  0
   -8.6641   -4.5380   -5.1619 C   0  0  0  0  0  0  0  0  0  0  0  0
   -8.5163   -3.0381   -4.9112 C   0  0  0  0  0  0  0  0  0  0  0  0
   -9.5895   -2.2963   -5.6896 C   0  0  1  0  0  0  0  0  0  0  0  0
   -9.4067   -0.5638   -5.3085 Cl  0  0  0  0  0  0  0  0  0  0  0  0
   -9.5166   -2.5059   -7.2101 C   0  0  0  0  0  0  0  0  0  0  0  0
  -10.5814   -1.6970   -7.9492 C   0  0  0  0  0  0  0  0  0  0  0  0
  2  1  2  0
  3  2  1  0
  4  1  1  0
  5  4  2  0
  6  5  1  0
  6  3  2  0
  7  1  1  0
  8  7  1  0
  9  8  1  0
 10  9  2  0
 11  9  1  0
 12 11  1  0
 13 12  1  0
 14 13  2  0
 15 13  1  0
 16 14  1  0
 17 15  2  0
 18 17  1  0
 18 16  2  0
 19 18  1  0
 20 19  1  0
 21 20  1  0
 22 21  1  0
 23 22  1  0
 23 24  1  6
 25 23  1  0
 26 25  1  0
M  END
>  <SMILES>  (29) 
CCC(Cl)CCCNc1ccc(CNC(=S)NCc2cccnc2)cc1

>  <scaffold>  (29) 
pyridine

$$$$

     RDKit          3D

 21 23  0  0  0  0  0  0  0  0999 V2000
   -0.0000    0.0000    0.0000 C   0  0  0  0  0  0  0  0  0  0  0  0
   -0.0000    0.0000    1.3941 C   0  0  0  0  0  0  0  0  0  0  0  0
    1.2154    0.0000    2.0607 C   0  0  0  0  0  0  0  0  0  0  0  0
    1.2462   -0.0000   -0.6426 C   0  0  0  0  0  0  0  0  0  0  0  0
    2.4163    0.0000   -0.0392 N   0  0  0  0  0  0  0  0  0  0  0  0
    2.4163    0.0000    1.2849 C   0  0  0  0  0  0  0  0  0  0  0  0
   -1.1652   -0.0000   -0.7508 N   0  0  0  0  0  0  0  0  0  0  0  0
   -2.4537    0.0000   -0.3579 C   0  0  0  0  0  0  0  0  0  0  0  0
   -2.9153   -0.0000    0.8590 N   0  0  0  0  0  0  0  0  0  0  0  0
   -3.4226    0.0537   -1.3033 O   0  0  0  0  0  0  0  0  0  0  0  0
   -4.2603    0.0531    0.7058 N   0  0  0  0  0  0  0  0  0  0  0  0
   -4.5579    0.0894   -0.5227 C   0  0  0  0  0  0  0  0  0  0  0  0
   -5.8855    0.0955   -1.1086 C   0  0  0  0  0  0  0  0  0  0  0  0
   -6.0614    0.0654   -2.4912 C   0  0  0  0  0  0  0  0  0  0  0  0
   -6.9968    0.1819   -0.2845 C   0  0  0  0  0  0  0  0  0  0  0  0
   -7.3415    0.0229   -3.0002 C   0  0  0  0  0  0  0  0  0  0  0  0
   -8.2777    0.1416   -0.7918 C   0  0  0  0  0  0  0  0  0  0  0  0
   -8.5029    0.0077   -2.2005 C   0  0  0  0  0  0  0  0  0  0  0  0
   -9.6924   -0.0865   -2.8088 O   0  0  0  0  0  0  0  0  0  0  0  0
   -7.5619   -0.0573   -4.3504 O   0  0  0  0  0  0  0  0  0  0  0  0
  -10.9397   -0.0562   -2.1175 C   0  0  0  0  0  0  0  0  0  0  0  0
  2  1  2  0
  3  2  1  0
  4  1  1  0
  5  4  2  0
  6  5  1  0
  6  3  2  0
  7  1  1  0
  8  7  1  0
  9  8  2  0
 10  8  1  0
 11  9  1  0
 12 11  2  0
 12 10  1  0
 13 12  1  0
 14 13  2  0
 15 13  1  0
 16 14  1  0
 17 15  2  0
 18 17  1  0
 18 16  2  0
 19 18  1  0
 20 16  1  0
 21 19  1  0
M  END
>  <SMILES>  (30) 
COc1ccc(-c2nnc(Nc3cccnc3)o2)cc1O

>  <scaffold>  (30) 
pyridine

$$$$

     RDKit          3D

 28 29  0  0  0  0  0  0  0  0999 V2000
    0.0000   -0.0000   -0.0000 C   0  0  0  0  0  0  0  0  0  0  0  0
   -0.0000    0.0000    1.3941 C   0  0  0  0  0  0  0  0  0  0  0  0
    1.2154   -0.0000    2.0607 C   0  0  0  0  0  0  0  0  0  0  0  0
    1.2391    0.0000   -0.6390 C   0  0  0  0  0  0  0  0  0  0  0  0
    2.4092   -0.0000   -0.0356 N   0  0  0  0  0  0  0  0  0  0  0  0
    2.4092   -0.0000    1.2885 C   0  0  0  0  0  0  0  0  0  0  0  0
   -1.1719   -0.0000   -0.7551 N   0  0  0  0  0  0  0  0  0  0  0  0
   -2.4677    0.0000   -0.3600 C   0  0  0  0  0  0  0  0  0  0  0  0
   -2.8467    0.0574    0.7858 O   0  0  0  0  0  0  0  0  0  0  0  0
   -3.2730   -0.0530   -1.4386 O   0  0  0  0  0  0  0  0  0  0  0  0
   -4.6494   -0.0129   -1.3811 C   0  0  0  0  0  0  0  0  0  0  0  0
   -5.3283    0.6988   -0.4043 C   0  0  0  0  0  0  0  0  0  0  0  0
   -5.3450   -0.7437   -2.3316 C   0  0  0  0  0  0  0  0  0  0  0  0
   -6.7042    0.7057   -0.4835 C   0  0  0  0  0  0  0  0  0  0  0  0
   -6.7054   -0.7400   -2.4091 C   0  0  0  0  0  0  0  0  0  0  0  0
   -7.4070    0.0938   -1.5097 C   0  0  0  0  0  0  0  0  0  0  0  0
   -8.7965    0.0315   -1.6057 N   0  0  0  0  0  0  0  0  0  0  0  0
   -9.6669    0.5041   -0.6813 C   0  0  0  0  0  0  0  0  0  0  0  0
   -9.4618    1.1048    0.3467 O   0  0  0  0  0  0  0  0  0  0  0  0
  -10.8919    0.1829   -1.1626 O   0  0  0  0  0  0  0  0  0  0  0  0
  -11.9607    0.6529   -0.3433 C   0  0  0  0  0  0  0  0  0  0  0  0
  -12.2968    2.1132   -0.6415 C   0  0  0  0  0  0  0  0  0  0  0  0
  -12.8020    2.2980   -2.0715 C   0  0  0  0  0  0  0  0  0  0  0  0
  -13.0712    3.7787   -2.3352 C   0  0  0  0  0  0  0  0  0  0  0  0
  -13.6314    4.0113   -3.7375 C   0  0  0  0  0  0  0  0  0  0  0  0
  -13.9713    5.4803   -4.0337 C   0  0  0  0  0  0  0  0  0  0  0  0
  -14.5774    5.6507   -5.4258 C   0  0  0  0  0  0  0  0  0  0  0  0
  -14.8832    7.1025   -5.7908 C   0  0  0  0  0  0  0  0  0  0  0  0
  2  1  2  0
  3  2  1  0
  4  1  1  0
  5  4  2  0
  6  5  1  0
  6  3  2  0
  7  1  1  0
  8  7  1  0
  9  8  2  0
 10  8  1  0
 11 10  1  0
 12 11  2  0
 13 11  1  0
 14 12  1  0
 15 13  2  0
 16 15  1  0
 16 14  2  0
 17 16  1  0
 18 17  1  0
 19 18  2  0
 20 18  1  0
 21 20  1  0
 22 21  1  0
 23 22  1  0
 24 23  1  0
 25 24  1  0
 26 25  1  0
 27 26  1  0
 28 27  1  0
M  END
>  <SMILES>  (31) 
CCCCCCCCOC(=O)Nc1ccc(OC(=O)Nc2cccnc2)cc1

>  <scaffold>  (31) 
pyridine

$$$$

     RDKit          3D

 13 14  0  0  0  0  0  0  0  0999 V2000
   -0.0000    0.0000    0.0000 C   0  0  0  0  0  0  0  0  0  0  0  0
   -0.0000   -0.0000    1.3165 N   0  0  0  0  0  0  0  0  0  0  0  0
    1.1609   -0.0000    1.9533 C   0  0  0  0  0  0  0  0  0  0  0  0
    1.1719   -0.0000   -0.7551 C   0  0  0  0  0  0  0  0  0  0  0  0
    2.4109   -0.0000   -0.1162 C   0  0  0  0  0  0  0  0  0  0  0  0
    2.4109   -0.0000    1.2700 C   0  0  0  0  0  0  0  0  0  0  0  0
    1.1186   -0.0533   -2.2295 C   0  0  0  0  0  0  0  0  0  0  0  0
    2.0944   -0.7580   -2.7628 N   0  0  0  0  0  0  0  0  0  0  0  0
    0.1377    0.6565   -2.9836 C   0  0  0  0  0  0  0  0  0  0  0  0
    2.1197   -0.9152   -4.0471 N   0  0  0  0  0  0  0  0  0  0  0  0
    0.1579    0.4871   -4.3355 C   0  0  0  0  0  0  0  0  0  0  0  0
    1.2221   -0.4101   -4.8672 C   0  0  0  0  0  0  0  0  0  0  0  0
    1.1813   -0.5864   -6.1942 O   0  0  0  0  0  0  0  0  0  0  0  0
  2  1  2  0
  3  2  1  0
  4  1  1  0
  5  4  2  0
  6  5  1  0
  6  3  2  0
  7  4  1  0
  8  7  2  0
  9  7  1  0
 10  8  1  0
 11  9  2  0
 12 11  1  0
 12 10  2  0
 13 12  1  0
M  END
>  <SMILES>  (32) 
Oc1ccc(-c2cccnc2)nn1

>  <scaffold>  (32) 
pyridine

$$$$

     RDKit          3D

 16 17  0  0  0  0  0  0  0  0999 V2000
    0.0000    0.0000   -0.0000 C   0  0  0  0  0  0  0  0  0  0  0  0
    0.0000    0.0000    1.3317 N   0  0  0  0  0  0  0  0  0  0  0  0
    1.1609   -0.0000    1.9684 C   0  0  0  0  0  0  0  0  0  0  0  0
    1.1719   -0.0000   -0.7551 C   0  0  0  0  0  0  0  0  0  0  0  0
    2.4039    0.0000   -0.1198 C   0  0  0  0  0  0  0  0  0  0  0  0
    2.4039    0.0000    1.2663 C   0  0  0  0  0  0  0  0  0  0  0  0
   -1.2586   -0.0618   -0.5776 N   0  0  0  0  0  0  0  0  0  0  0  0
   -1.6053   -0.0242   -1.9109 C   0  0  0  0  0  0  0  0  0  0  0  0
   -2.3537   -0.1697    0.2127 N   0  0  0  0  0  0  0  0  0  0  0  0
   -2.9670   -0.0654   -1.9369 C   0  0  0  0  0  0  0  0  0  0  0  0
   -3.3776   -0.1528   -0.6146 C   0  0  0  0  0  0  0  0  0  0  0  0
   -4.6674   -0.1928   -0.1085 N   0  0  0  0  0  0  0  0  0  0  0  0
   -0.5832    0.1120   -3.2914 Cl  0  0  0  0  0  0  0  0  0  0  0  0
   -5.8334   -0.2371   -0.7968 C   0  0  0  0  0  0  0  0  0  0  0  0
   -5.9265   -0.2488   -1.9944 O   0  0  0  0  0  0  0  0  0  0  0  0
   -6.8428   -0.2115    0.1064 O   0  0  0  0  0  0  0  0  0  0  0  0
  2  1  2  0
  3  2  1  0
  4  1  1  0
  5  4  2  0
  6  5  1  0
  6  3  2  0
  7  1  1  0
  8  7  1  0
  9  7  1  0
 10  8  2  0
 11 10  1  0
 11  9  2  0
 12 11  1  0
 13  8  1  0
 14 12  1  0
 15 14  2  0
 16 14  1  0
M  END
>  <SMILES>  (33) 
O=C(O)Nc1cc(Cl)n(-c2ccccn2)n1

>  <scaffold>  (33) 
pyridine

$$$$

     RDKit          3D

 15 16  0  0  0  0  0  0  0  0999 V2000
    0.0000   -0.0000   -0.0000 C   0  0  0  0  0  0  0  0  0  0  0  0
   -0.0000   -0.0000    1.3241 N   0  0  0  0  0  0  0  0  0  0  0  0
    1.1609   -0.0000    1.9608 C   0  0  0  0  0  0  0  0  0  0  0  0
    1.1719    0.0000   -0.7551 C   0  0  0  0  0  0  0  0  0  0  0  0
    2.3968   -0.0000   -0.1235 C   0  0  0  0  0  0  0  0  0  0  0  0
    2.3968   -0.0000    1.2707 C   0  0  0  0  0  0  0  0  0  0  0  0
   -1.5669   -0.0000   -0.8080 S   0  0  0  0  0  0  0  0  0  0  0  0
   -2.7785    0.4651    0.4894 C   0  0  0  0  0  0  0  0  0  0  0  0
   -2.6985    1.9347    0.7417 C   0  0  0  0  0  0  0  0  0  0  0  0
   -2.0844    2.4619    1.8572 C   0  0  0  0  0  0  0  0  0  0  0  0
   -3.2347    2.8368   -0.1640 C   0  0  0  0  0  0  0  0  0  0  0  0
   -1.9905    3.8507    2.0256 C   0  0  0  0  0  0  0  0  0  0  0  0
   -3.1409    4.2097    0.0027 C   0  0  0  0  0  0  0  0  0  0  0  0
   -2.4736    4.7031    1.0225 C   0  0  0  0  0  0  0  0  0  0  0  0
   -1.4181    4.3259    3.1671 N   0  0  0  0  0  0  0  0  0  0  0  0
  2  1  2  0
  3  2  1  0
  4  1  1  0
  5  4  2  0
  6  5  1  0
  6  3  2  0
  7  1  1  0
  8  7  1  0
  9  8  1  0
 10  9  2  0
 11  9  1  0
 12 10  1  0
 13 11  2  0
 14 13  1  0
 14 12  2  0
 15 12  1  0
M  END
>  <SMILES>  (34) 
Nc1cccc(CSc2ccccn2)c1

>  <scaffold>  (34) 
pyridine

$$$$

     RDKit          3D

 27 28  0  0  0  0  0  0  0  0999 V2000
    0.0000    0.0000    0.0000 C   0  0  0  0  0  0  0  0  0  0  0  0
   -0.0000   -0.0000    1.3241 N   0  0  0  0  0  0  0  0  0  0  0  0
    1.1543   -0.0000    1.9572 C   0  0  0  0  0  0  0  0  0  0  0  0
    1.1652   -0.0000   -0.7508 C   0  0  0  0  0  0  0  0  0  0  0  0
    2.3573   -0.0586   -0.0617 C   0  0  0  0  0  0  0  0  0  0  0  0
    2.3566   -0.1145    1.3313 C   0  0  0  0  0  0  0  0  0  0  0  0
    3.5709   -0.2216    1.9745 N   0  0  0  0  0  0  0  0  0  0  0  0
    3.7773   -0.0181    3.6237 S   0  0  0  0  0  6  0  0  0  0  0  0
    2.8711    0.8952    4.2203 O   0  0  0  0  0  0  0  0  0  0  0  0
    5.1677    0.3193    3.7289 O   0  0  0  0  0  0  0  0  0  0  0  0
    3.6537   -1.5782    4.1918 N   0  0  0  0  0  0  0  0  0  0  0  0
    4.7702   -2.4123    3.8515 C   0  0  0  0  0  0  0  0  0  0  0  0
    3.3392   -1.7255    5.5923 C   0  0  0  0  0  0  0  0  0  0  0  0
    2.3310   -2.7995    5.8367 C   0  0  0  0  0  0  0  0  0  0  0  0
    2.1447   -3.7569    4.9636 N   0  0  0  0  0  0  0  0  0  0  0  0
    1.5117   -3.0113    6.9546 C   0  0  0  0  0  0  0  0  0  0  0  0
    1.2114   -4.5910    5.5019 O   0  0  0  0  0  0  0  0  0  0  0  0
    0.8159   -4.1537    6.6951 C   0  0  0  0  0  0  0  0  0  0  0  0
   -0.2469   -4.9229    7.3902 C   0  0  0  0  0  0  0  0  0  0  0  0
   -1.0702   -4.0232    8.3105 C   0  0  0  0  0  0  0  0  0  0  0  0
   -2.1807   -4.8491    8.9578 C   0  0  0  0  0  0  0  0  0  0  0  0
   -2.9372   -3.9199    9.9058 C   0  0  0  0  0  0  0  0  0  0  0  0
   -4.0283   -4.7144   10.6217 C   0  0  0  0  0  0  0  0  0  0  0  0
   -4.7123   -3.7622   11.5878 C   0  0  2  0  0  0  0  0  0  0  0  0
   -3.6448   -3.3969   12.9821 Cl  0  0  0  0  0  0  0  0  0  0  0  0
   -5.9946   -4.4135   12.1034 C   0  0  0  0  0  0  0  0  0  0  0  0
   -6.6655   -3.4039   13.0191 C   0  0  0  0  0  0  0  0  0  0  0  0
  2  1  2  0
  3  2  1  0
  4  1  1  0
  5  4  2  0
  6  5  1  0
  6  3  2  0
  7  6  1  0
  8  7  1  0
  9  8  2  0
 10  8  2  0
 11  8  1  0
 12 11  1  0
 13 11  1  0
 14 13  1  0
 15 14  2  0
 16 14  1  0
 17 15  1  0
 18 17  1  0
 18 16  2  0
 19 18  1  0
 20 19  1  0
 21 20  1  0
 22 21  1  0
 23 22  1  0
 24 23  1  0
 24 25  1  1
 26 24  1  0
 27 26  1  0
M  END
>  <SMILES>  (35) 
CCC(Cl)CCCCCc1cc(CN(C)S(=O)(=O)Nc2cccnc2)no1

>  <scaffold>  (35) 
pyridine

$$$$

     RDKit          3D

 21 22  0  0  0  0  0  0  0  0999 V2000
    0.0000   -0.0000   -0.0000 C   0  0  0  0  0  0  0  0  0  0  0  0
   -0.0000    0.0000    1.3862 C   0  0  0  0  0  0  0  0  0  0  0  0
    1.2084   -0.0000    2.0489 C   0  0  0  0  0  0  0  0  0  0  0  0
    1.2320   -0.0000   -0.6353 C   0  0  0  0  0  0  0  0  0  0  0  0
    2.4021   -0.0000   -0.0319 N   0  0  0  0  0  0  0  0  0  0  0  0
    2.4021   -0.0000    1.2998 C   0  0  0  0  0  0  0  0  0  0  0  0
   -1.5783    0.0000   -1.0170 Br  0  0  0  0  0  0  0  0  0  0  0  0
    3.6341    0.0492    1.8798 N   0  0  0  0  0  0  0  0  0  0  0  0
    4.7742    0.0386    1.2215 N   0  0  0  0  0  0  0  0  0  0  0  0
    5.9105    0.0402    1.8093 C   0  0  0  0  0  0  0  0  0  0  0  0
    7.1919    0.0814    1.1295 C   0  0  0  0  0  0  0  0  0  0  0  0
    8.3248    0.0263    1.8562 N   0  0  0  0  0  0  0  0  0  0  0  0
    7.2553    0.1841   -0.2435 C   0  0  0  0  0  0  0  0  0  0  0  0
    9.5054    0.1046    1.3695 C   0  0  0  0  0  0  0  0  0  0  0  0
    8.5494    0.2690   -0.7765 C   0  0  0  0  0  0  0  0  0  0  0  0
    9.6386    0.2588   -0.0177 C   0  0  0  0  0  0  0  0  0  0  0  0
    8.4822    0.4181   -2.1214 O   0  0  0  0  0  0  0  0  0  0  0  0
    9.6359    0.1865   -2.9131 C   0  0  0  0  0  0  0  0  0  0  0  0
   10.0615   -1.2799   -2.9686 C   0  0  0  0  0  0  0  0  0  0  0  0
   11.2113   -1.6061   -3.9204 C   0  0  0  0  0  0  0  0  0  0  0  0
   11.5595   -3.0837   -3.9790 C   0  0  0  0  0  0  0  0  0  0  0  0
  2  1  2  0
  3  2  1  0
  4  1  1  0
  5  4  2  0
  6  5  1  0
  6  3  2  0
  7  1  1  0
  8  6  1  0
  9  8  1  0
 10  9  2  0
 11 10  1  0
 12 11  2  0
 13 11  1  0
 14 12  1  0
 15 13  2  0
 16 15  1  0
 16 14  2  0
 17 15  1  0
 18 17  1  0
 19 18  1  0
 20 19  1  0
 21 20  1  0
M  END
>  <SMILES>  (36) 
CCCCOc1ccnc(C=NNc2ccc(Br)cn2)c1

>  <scaffold>  (36) 
pyridine

$$$$

     RDKit          3D

 18 19  0  0  0  0  0  0  0  0999 V2000
   -0.0000    0.0000   -0.0000 C   0  0  0  0  0  0  0  0  0  0  0  0
    0.0000    0.0000    1.3782 C   0  0  0  0  0  0  0  0  0  0  0  0
    1.2403    0.0000    2.0322 C   0  0  0  0  0  0  0  0  0  0  0  0
    1.2391   -0.0000   -0.6390 C   0  0  0  0  0  0  0  0  0  0  0  0
    2.4092    0.0000   -0.0356 N   0  0  0  0  0  0  0  0  0  0  0  0
    2.4092   -0.0000    1.2885 C   0  0  0  0  0  0  0  0  0  0  0  0
    1.3657   -0.0519    3.3570 O   0  0  0  0  0  0  0  0  0  0  0  0
    3.5995    0.0475    1.8489 O   0  0  0  0  0  0  0  0  0  0  0  0
    4.7976    0.0953    1.0763 C   0  0  0  0  0  0  0  0  0  0  0  0
    5.1305   -1.2737    0.4852 C   0  0  0  0  0  0  0  0  0  0  0  0
    5.4174   -2.3094    1.5712 C   0  0  0  0  0  0  0  0  0  0  0  0
    5.7927   -3.6275    0.9362 C   0  0  0  0  0  0  0  0  0  0  0  0
    7.1231   -3.9350    0.6977 C   0  0  0  0  0  0  0  0  0  0  0  0
    4.8192   -4.5077    0.5155 C   0  0  0  0  0  0  0  0  0  0  0  0
    7.4137   -5.1280    0.0716 C   0  0  0  0  0  0  0  0  0  0  0  0
    5.1128   -5.6985   -0.1132 C   0  0  0  0  0  0  0  0  0  0  0  0
    6.4592   -6.0557   -0.3428 C   0  0  0  0  0  0  0  0  0  0  0  0
    6.7968   -7.2454   -0.9148 N   0  0  0  0  0  0  0  0  0  0  0  0
  2  1  2  0
  3  2  1  0
  4  1  1  0
  5  4  2  0
  6  5  1  0
  6  3  2  0
  7  3  1  0
  8  6  1  0
  9  8  1  0
 10  9  1  0
 11 10  1  0
 12 11  1  0
 13 12  2  0
 14 12  1  0
 15 13  1  0
 16 14  2  0
 17 16  1  0
 17 15  2  0
 18 17  1  0
M  END
>  <SMILES>  (37) 
Nc1ccc(CCCOc2ncccc2O)cc1

>  <scaffold>  (37) 
pyridine

$$$$

     RDKit          3D

 23 24  0  0  0  0  0  0  0  0999 V2000
    0.0000    0.0000    0.0000 C   0  0  0  0  0  0  0  0  0  0  0  0
    0.0000   -0.0000    1.3941 C   0  0  0  0  0  0  0  0  0  0  0  0
    1.2154   -0.0000    2.0607 C   0  0  0  0  0  0  0  0  0  0  0  0
    1.2391    0.0000   -0.6390 C   0  0  0  0  0  0  0  0  0  0  0  0
    2.4092   -0.0000   -0.0356 N   0  0  0  0  0  0  0  0  0  0  0  0
    2.4092    0.0000    1.2885 C   0  0  0  0  0  0  0  0  0  0  0  0
   -1.2339    0.0000   -0.7951 C   0  0  0  0  0  0  0  0  0  0  0  0
   -1.1077    0.0522   -2.1274 N   0  0  0  0  0  0  0  0  0  0  0  0
   -2.3469    0.0000   -0.0779 N   0  0  0  0  0  0  0  0  0  0  0  0
   -2.1822    0.1015   -2.8735 C   0  0  0  0  0  0  0  0  0  0  0  0
   -3.4264    0.0475   -0.8300 C   0  0  0  0  0  0  0  0  0  0  0  0
   -3.4269    0.0969   -2.2280 C   0  0  0  0  0  0  0  0  0  0  0  0
   -2.0070    0.1044   -4.2169 N   0  0  0  0  0  0  0  0  0  0  0  0
   -0.7628    0.3500   -4.7765 O   0  0  0  0  0  0  0  0  0  0  0  0
   -0.5913    1.7100   -5.1707 C   0  0  0  0  0  0  0  0  0  0  0  0
   -0.5406    2.6883   -3.9982 C   0  0  0  0  0  0  0  0  0  0  0  0
   -0.3015    4.1216   -4.4701 C   0  0  0  0  0  0  0  0  0  0  0  0
   -0.1879    5.1325   -3.3300 C   0  0  0  0  0  0  0  0  0  0  0  0
    0.1046    6.5384   -3.8517 C   0  0  0  0  0  0  0  0  0  0  0  0
    0.1539    7.5122   -2.6867 C   0  0  0  0  0  0  0  0  0  0  0  0
   -0.0648    7.2134   -1.5147 O   0  0  0  0  0  0  0  0  0  0  0  0
    0.4613    8.7960   -3.0243 N   0  0  0  0  0  0  0  0  0  0  0  0
    0.6466    9.6991   -1.9785 N   0  0  0  0  0  0  0  0  0  0  0  0
  2  1  2  0
  3  2  1  0
  4  1  1  0
  5  4  2  0
  6  5  1  0
  6  3  2  0
  7  1  1  0
  8  7  2  0
  9  7  1  0
 10  8  1  0
 11  9  2  0
 12 11  1  0
 12 10  2  0
 13 10  1  0
 14 13  1  0
 15 14  1  0
 16 15  1  0
 17 16  1  0
 18 17  1  0
 19 18  1  0
 20 19  1  0
 21 20  2  0
 22 20  1  0
 23 22  1  0
M  END
>  <SMILES>  (38) 
NNC(=O)CCCCCONc1ccnc(-c2cccnc2)n1

>  <scaffold>  (38) 
pyridine

$$$$

     RDKit          3D

 27 29  0  0  0  0  0  0  0  0999 V2000
   -0.0000    0.0000   -0.0000 C   0  0  0  0  0  0  0  0  0  0  0  0
    0.0000    0.0000    1.4183 C   0  0  0  0  0  0  0  0  0  0  0  0
    1.1658   -0.0000    2.1085 C   0  0  0  0  0  0  0  0  0  0  0  0
    1.2041    0.0000   -0.6209 C   0  0  0  0  0  0  0  0  0  0  0  0
    2.4151    0.0000    0.0036 N   0  0  0  0  0  0  0  0  0  0  0  0
    2.4151    0.0000    1.3897 C   0  0  0  0  0  0  0  0  0  0  0  0
    3.5264   -0.0443    1.9129 O   0  0  0  0  0  0  0  0  0  0  0  0
    3.6937    0.0529   -0.7154 C   0  0  0  0  0  0  0  0  0  0  0  0
   -1.4990    0.0736   -0.8665 Cl  0  0  0  0  0  0  0  0  0  0  0  0
    3.7651    1.3084   -1.5365 C   0  0  0  0  0  0  0  0  0  0  0  0
    3.6376    2.5641   -0.9634 C   0  0  0  0  0  0  0  0  0  0  0  0
    3.9977    1.2203   -2.9083 C   0  0  0  0  0  0  0  0  0  0  0  0
    3.6471    3.7469   -1.6861 C   0  0  0  0  0  0  0  0  0  0  0  0
    4.0060    2.3956   -3.6282 C   0  0  0  0  0  0  0  0  0  0  0  0
    3.7917    3.6889   -3.0635 C   0  0  0  0  0  0  0  0  0  0  0  0
    3.7631    4.7698   -3.8797 O   0  0  0  0  0  0  0  0  0  0  0  0
    3.5746    6.0426   -3.3026 C   0  0  0  0  0  0  0  0  0  0  0  0
    3.5260    7.0494   -4.4508 C   0  0  0  0  0  0  0  0  0  0  0  0
    3.2836    8.3715   -3.9985 O   0  0  0  0  0  0  0  0  0  0  0  0
    4.3488    9.1365   -3.6008 C   0  0  0  0  0  0  0  0  0  0  0  0
    3.9774   10.3944   -3.1282 C   0  0  0  0  0  0  0  0  0  0  0  0
    5.6946    8.7758   -3.6465 C   0  0  0  0  0  0  0  0  0  0  0  0
    4.9663   11.2760   -2.7483 C   0  0  0  0  0  0  0  0  0  0  0  0
    6.6830    9.6573   -3.2649 C   0  0  0  0  0  0  0  0  0  0  0  0
    6.3300   10.9919   -2.8054 C   0  0  0  0  0  0  0  0  0  0  0  0
    7.3838   11.7484   -2.4149 O   0  0  0  0  0  0  0  0  0  0  0  0
    7.0012   13.0108   -1.8721 C   0  0  0  0  0  0  0  0  0  0  0  0
  2  1  1  0
  3  2  2  0
  4  1  2  0
  5  4  1  0
  6  5  1  0
  6  3  1  0
  7  6  2  0
  8  5  1  0
  9  1  1  0
 10  8  1  0
 11 10  2  0
 12 10  1  0
 13 11  1  0
 14 12  2  0
 15 14  1  0
 15 13  2  0
 16 15  1  0
 17 16  1  0
 18 17  1  0
 19 18  1  0
 20 19  1  0
 21 20  2  0
 22 20  1  0
 23 21  1  0
 24 22  2  0
 25 23  2  0
 25 24  1  0
 26 25  1  0
 27 26  1  0
M  END
>  <SMILES>  (39) 
COc1ccc(OCCOc2ccc(Cn3cc(Cl)ccc3=O)cc2)cc1

>  <scaffold>  (39) 
pyridine

$$$$

     RDKit          3D

 26 28  0  0  0  0  0  0  0  0999 V2000
   -0.0000   -0.0000    0.0000 C   0  0  0  0  0  0  0  0  0  0  0  0
    0.0000   -0.0000    1.3862 C   0  0  0  0  0  0  0  0  0  0  0  0
    1.2154    0.0000    2.0527 C   0  0  0  0  0  0  0  0  0  0  0  0
    1.2320   -0.0000   -0.6353 C   0  0  0  0  0  0  0  0  0  0  0  0
    2.4088    0.0000   -0.0284 N   0  0  0  0  0  0  0  0  0  0  0  0
    2.4088    0.0000    1.3032 C   0  0  0  0  0  0  0  0  0  0  0  0
    3.7016    0.0544    1.8222 N   0  0  0  0  0  0  0  0  0  0  0  0
    4.0415    0.1230    3.1480 C   0  0  0  0  0  0  0  0  0  0  0  0
    3.2917    0.1476    4.0774 O   0  0  0  0  0  0  0  0  0  0  0  0
    5.3701    0.2084    3.1785 O   0  0  0  0  0  0  0  0  0  0  0  0
    6.0374    0.2388    4.3841 C   0  0  0  0  0  0  0  0  0  0  0  0
    7.3729   -0.1371    4.2474 C   0  0  0  0  0  0  0  0  0  0  0  0
    5.5715    0.7072    5.6117 C   0  0  0  0  0  0  0  0  0  0  0  0
    8.1590   -0.0944    5.3787 C   0  0  0  0  0  0  0  0  0  0  0  0
    6.3672    0.7337    6.7561 C   0  0  0  0  0  0  0  0  0  0  0  0
    7.6875    0.3563    6.6018 C   0  0  0  0  0  0  0  0  0  0  0  0
    5.9411    1.1362    7.9862 O   0  0  0  0  0  0  0  0  0  0  0  0
    4.9991    2.1396    8.0583 C   0  0  0  0  0  0  0  0  0  0  0  0
    4.9929    3.2597    7.2418 C   0  0  0  0  0  0  0  0  0  0  0  0
    4.0525    2.0106    9.0736 C   0  0  0  0  0  0  0  0  0  0  0  0
    4.0522    4.2678    7.3848 C   0  0  0  0  0  0  0  0  0  0  0  0
    3.1201    3.0157    9.2154 C   0  0  0  0  0  0  0  0  0  0  0  0
    3.1295    4.1576    8.4240 C   0  0  0  0  0  0  0  0  0  0  0  0
    2.2158    5.1238    8.4942 F   0  0  0  0  0  0  0  0  0  0  0  0
    2.2062    2.9561   10.2243 O   0  0  0  0  0  0  0  0  0  0  0  0
    2.1605    1.8845   11.1646 C   0  0  0  0  0  0  0  0  0  0  0  0
  2  1  2  0
  3  2  1  0
  4  1  1  0
  5  4  2  0
  6  5  1  0
  6  3  2  0
  7  6  1  0
  8  7  1  0
  9  8  2  0
 10  8  1  0
 11 10  1  0
 12 11  2  0
 13 11  1  0
 14 12  1  0
 15 13  2  0
 16 14  2  0
 16 15  1  0
 17 15  1  0
 18 17  1  0
 19 18  2  0
 20 18  1  0
 21 19  1  0
 22 20  2  0
 23 22  1  0
 23 21  2  0
 24 23  1  0
 25 22  1  0
 26 25  1  0
M  END
>  <SMILES>  (40) 
COc1cc(Oc2cccc(OC(=O)Nc3ccccn3)c2)ccc1F

>  <scaffold>  (40) 
pyridine

$$$$

     RDKit          3D

 27 28  0  0  0  0  0  0  0  0999 V2000
   -0.0000    0.0000   -0.0000 C   0  0  0  0  0  0  0  0  0  0  0  0
   -0.0000   -0.0000    1.3941 C   0  0  0  0  0  0  0  0  0  0  0  0
    1.1974    0.0000    2.0767 C   0  0  0  0  0  0  0  0  0  0  0  0
    1.2250    0.0000   -0.6317 C   0  0  0  0  0  0  0  0  0  0  0  0
    2.4018   -0.0000   -0.0248 N   0  0  0  0  0  0  0  0  0  0  0  0
    2.4018   -0.0000    1.3145 C   0  0  0  0  0  0  0  0  0  0  0  0
    3.6725    0.0535    1.8246 N   0  0  0  0  0  0  0  0  0  0  0  0
    3.8896    0.2121    3.1212 N   0  0  0  0  0  0  0  0  0  0  0  0
    5.0852    0.3018    3.5462 C   0  0  0  0  0  0  0  0  0  0  0  0
    5.2695    0.5267    4.9679 C   0  0  0  0  0  0  0  0  0  0  0  0
    6.5583    0.5516    5.3020 N   0  0  0  0  0  0  0  0  0  0  0  0
    4.2519    0.7704    5.8772 C   0  0  0  0  0  0  0  0  0  0  0  0
    6.8520    0.8029    6.5763 C   0  0  0  0  0  0  0  0  0  0  0  0
    4.5624    1.0248    7.2122 C   0  0  0  0  0  0  0  0  0  0  0  0
    5.9300    1.0406    7.5836 C   0  0  0  0  0  0  0  0  0  0  0  0
    8.5545    0.8842    6.9408 Cl  0  0  0  0  0  0  0  0  0  0  0  0
    3.6573    1.3291    8.1841 O   0  0  0  0  0  0  0  0  0  0  0  0
    2.2778    1.2224    7.9118 C   0  0  0  0  0  0  0  0  0  0  0  0
    1.5121    1.5642    9.1890 C   0  0  0  0  0  0  0  0  0  0  0  0
    0.0160    1.3261    8.9905 C   0  0  0  0  0  0  0  0  0  0  0  0
   -0.6913    1.6276   10.3007 C   0  0  0  0  0  0  0  0  0  0  0  0
   -2.0639    1.3448   10.0824 O   0  0  0  0  0  0  0  0  0  0  0  0
   -2.8500    1.6433   11.2346 C   0  0  0  0  0  0  0  0  0  0  0  0
   -4.2906    1.3538   10.8492 C   0  0  0  0  0  0  0  0  0  0  0  0
   -5.1927    1.7920   12.0019 C   0  0  0  0  0  0  0  0  0  0  0  0
   -6.6609    1.5716   11.6408 C   0  0  0  0  0  0  0  0  0  0  0  0
   -7.5198    2.0744   12.8000 C   0  0  0  0  0  0  0  0  0  0  0  0
  2  1  2  0
  3  2  1  0
  4  1  1  0
  5  4  2  0
  6  5  1  0
  6  3  2  0
  7  6  1  0
  8  7  1  0
  9  8  2  0
 10  9  1  0
 11 10  2  0
 12 10  1  0
 13 11  1  0
 14 12  2  0
 15 14  1  0
 15 13  2  0
 16 13  1  0
 17 14  1  0
 18 17  1  0
 19 18  1  0
 20 19  1  0
 21 20  1  0
 22 21  1  0
 23 22  1  0
 24 23  1  0
 25 24  1  0
 26 25  1  0
 27 26  1  0
M  END
>  <SMILES>  (41) 
CCCCCOCCCCOc1cc(Cl)nc(C=NNc2ccccn2)c1

>  <scaffold>  (41) 
pyridine

$$$$

     RDKit          3D

 21 23  0  0  0  0  0  0  0  0999 V2000
    0.0000   -0.0000    0.0000 C   0  0  0  0  0  0  0  0  0  0  0  0
    0.0000   -0.0000    1.3241 N   0  0  0  0  0  0  0  0  0  0  0  0
    1.1543   -0.0000    1.9572 C   0  0  0  0  0  0  0  0  0  0  0  0
    1.1719    0.0000   -0.7551 C   0  0  0  0  0  0  0  0  0  0  0  0
    2.3778    0.0592   -0.0581 C   0  0  0  0  0  0  0  0  0  0  0  0
    2.3770    0.1149    1.3269 C   0  0  0  0  0  0  0  0  0  0  0  0
    1.2210    0.0492   -2.1159 O   0  0  0  0  0  0  0  0  0  0  0  0
    0.3476   -0.6852   -2.8461 C   0  0  0  0  0  0  0  0  0  0  0  0
   -0.1731   -1.8059   -2.3498 N   0  0  0  0  0  0  0  0  0  0  0  0
    0.1685   -0.2847   -4.1610 C   0  0  0  0  0  0  0  0  0  0  0  0
   -0.9193   -2.5469   -3.1418 C   0  0  0  0  0  0  0  0  0  0  0  0
   -0.6007   -1.0656   -4.9703 C   0  0  0  0  0  0  0  0  0  0  0  0
   -1.2070   -2.2429   -4.4716 C   0  0  0  0  0  0  0  0  0  0  0  0
   -2.0347   -2.9725   -5.3369 N   0  0  0  0  0  0  0  0  0  0  0  0
   -1.6738   -2.9418   -6.6504 N   0  0  0  0  0  0  0  0  0  0  0  0
   -3.1354   -3.6346   -4.9576 C   0  0  0  0  0  0  0  0  0  0  0  0
   -2.5773   -3.6252   -7.3063 C   0  0  0  0  0  0  0  0  0  0  0  0
   -3.5894   -4.1180   -6.1749 C   0  0  0  0  0  0  0  0  0  0  0  0
   -2.5955   -3.9798   -9.0025 S   0  0  0  0  0  0  0  0  0  0  0  0
   -1.1497   -2.9529   -9.4745 C   0  0  0  0  0  0  0  0  0  0  0  0
   -1.4535   -1.4829   -9.5228 C   0  0  0  0  0  0  0  0  0  0  0  0
  2  1  2  0
  3  2  1  0
  4  1  1  0
  5  4  2  0
  6  5  1  0
  6  3  2  0
  7  4  1  0
  8  7  1  0
  9  8  2  0
 10  8  1  0
 11  9  1  0
 12 10  2  0
 13 12  1  0
 13 11  2  0
 14 13  1  0
 15 14  1  0
 16 14  1  0
 17 15  2  0
 18 17  1  0
 18 16  2  0
 19 17  1  0
 20 19  1  0
 21 20  1  0
M  END
>  <SMILES>  (42) 
CCSc1ccn(-c2ccc(Oc3cccnc3)nc2)n1

>  <scaffold>  (42) 
pyridine

$$$$

     RDKit          3D

 25 26  0  0  0  0  0  0  0  0999 V2000
    0.0000   -0.0000   -0.0000 C   0  0  0  0  0  0  0  0  0  0  0  0
   -0.0000    0.0000    1.3165 N   0  0  0  0  0  0  0  0  0  0  0  0
    1.1543   -0.0000    1.9496 C   0  0  0  0  0  0  0  0  0  0  0  0
    1.1652    0.0000   -0.7508 C   0  0  0  0  0  0  0  0  0  0  0  0
    2.4043    0.0000   -0.1119 C   0  0  0  0  0  0  0  0  0  0  0  0
    2.3337   -0.0552    1.2714 C   0  0  0  0  0  0  0  0  0  0  0  0
   -1.5314   -0.0000   -0.7897 Cl  0  0  0  0  0  0  0  0  0  0  0  0
    3.7140    0.0576   -0.7905 C   0  0  0  0  0  0  0  0  0  0  0  0
    4.6998   -0.5770   -0.2602 N   0  0  0  0  0  0  0  0  0  0  0  0
    3.7998    0.7659   -1.9422 N   0  0  0  0  0  0  0  0  0  0  0  0
    5.9485   -0.4505   -0.9207 O   0  0  0  0  0  0  0  0  0  0  0  0
    6.9069   -1.3446   -0.6102 C   0  0  0  0  0  0  0  0  0  0  0  0
    7.9985   -1.2454   -1.1185 O   0  0  0  0  0  0  0  0  0  0  0  0
    6.5769   -2.3090    0.2587 N   0  0  0  0  0  0  0  0  0  0  0  0
    7.4510   -3.4257    0.5661 C   0  0  0  0  0  0  0  0  0  0  0  0
    6.9891   -4.6670   -0.1237 C   0  0  0  0  0  0  0  0  0  0  0  0
    7.2046   -5.0695   -1.3992 C   0  0  0  0  0  0  0  0  0  0  0  0
    6.2046   -5.5321    0.5629 O   0  0  0  0  0  0  0  0  0  0  0  0
    6.4978   -6.2907   -1.5429 C   0  0  0  0  0  0  0  0  0  0  0  0
    5.8868   -6.5229   -0.2804 C   0  0  0  0  0  0  0  0  0  0  0  0
    5.0713   -7.6524    0.2333 C   0  0  0  0  0  0  0  0  0  0  0  0
    5.8789   -8.4935    1.2206 C   0  0  0  0  0  0  0  0  0  0  0  0
    5.1011   -9.7026    1.7379 C   0  0  0  0  0  0  0  0  0  0  0  0
    5.9696  -10.5384    2.6768 C   0  0  0  0  0  0  0  0  0  0  0  0
    5.2545  -11.7915    3.1798 C   0  0  0  0  0  0  0  0  0  0  0  0
  2  1  2  0
  3  2  1  0
  4  1  1  0
  5  4  2  0
  6  5  1  0
  6  3  2  0
  7  1  1  0
  8  5  1  0
  9  8  2  0
 10  8  1  0
 11  9  1  0
 12 11  1  0
 13 12  2  0
 14 12  1  0
 15 14  1  0
 16 15  1  0
 17 16  2  0
 18 16  1  0
 19 17  1  0
 20 19  2  0
 20 18  1  0
 21 20  1  0
 22 21  1  0
 23 22  1  0
 24 23  1  0
 25 24  1  0
M  END
>  <SMILES>  (43) 
CCCCCc1ccc(CNC(=O)ON=C(N)c2ccnc(Cl)c2)o1

>  <scaffold>  (43) 
pyridine

$$$$

     RDKit          3D

 26 27  0  0  0  0  0  0  0  0999 V2000
    0.0000   -0.0000   -0.0000 C   0  0  0  0  0  0  0  0  0  0  0  0
    0.0000   -0.0000    1.3941 C   0  0  0  0  0  0  0  0  0  0  0  0
    1.2154   -0.0000    2.0607 C   0  0  0  0  0  0  0  0  0  0  0  0
    1.2391   -0.0000   -0.6390 C   0  0  0  0  0  0  0  0  0  0  0  0
    2.4092   -0.0000   -0.0356 N   0  0  0  0  0  0  0  0  0  0  0  0
    2.4092   -0.0000    1.2810 C   0  0  0  0  0  0  0  0  0  0  0  0
   -1.1652    0.0000   -0.7508 N   0  0  0  0  0  0  0  0  0  0  0  0
    1.2642    0.0489    3.4137 O   0  0  0  0  0  0  0  0  0  0  0  0
   -2.4537    0.0000   -0.3579 C   0  0  0  0  0  0  0  0  0  0  0  0
   -2.8846   -0.0000    0.7782 O   0  0  0  0  0  0  0  0  0  0  0  0
   -3.3670   -0.0601   -1.5813 C   0  0  0  0  0  0  0  0  0  0  0  0
   -2.9791   -0.0530   -2.7255 O   0  0  0  0  0  0  0  0  0  0  0  0
   -4.6379   -0.1096   -1.2413 O   0  0  0  0  0  0  0  0  0  0  0  0
   -5.6572   -0.1140   -2.2508 C   0  0  0  0  0  0  0  0  0  0  0  0
   -5.9513    1.2904   -2.6643 C   0  0  0  0  0  0  0  0  0  0  0  0
   -5.3217    2.0220   -3.6260 C   0  0  0  0  0  0  0  0  0  0  0  0
   -7.2250    2.1789   -1.8952 S   0  0  0  0  0  0  0  0  0  0  0  0
   -5.8130    3.3400   -3.7270 C   0  0  0  0  0  0  0  0  0  0  0  0
   -6.8532    3.5730   -2.8371 C   0  0  0  0  0  0  0  0  0  0  0  0
   -7.7020    5.1420   -2.6507 S   0  0  1  0  0  6  0  0  0  0  0  0
   -7.4558    5.9999   -3.7425 O   0  0  0  0  0  0  0  0  0  0  0  0
   -9.0364    4.7794   -2.3006 O   0  0  0  0  0  0  0  0  0  0  0  0
   -6.9880    5.7846   -1.2909 N   0  0  0  0  0  0  0  0  0  0  0  0
   -7.8661    6.5551   -0.4300 C   0  0  0  0  0  0  0  0  0  0  0  0
   -8.3596    7.8413   -1.0905 C   0  0  0  0  0  0  0  0  0  0  0  0
   -9.2341    8.6405   -0.1256 C   0  0  0  0  0  0  0  0  0  0  0  0
  2  1  2  0
  3  2  1  0
  4  1  1  0
  5  4  2  0
  6  5  1  0
  6  3  2  0
  7  1  1  0
  8  3  1  0
  9  7  1  0
 10  9  2  0
 11  9  1  0
 12 11  2  0
 13 11  1  0
 14 13  1  0
 15 14  1  0
 16 15  1  0
 17 15  2  0
 18 16  2  0
 19 18  1  0
 19 17  1  0
 20 19  2  0
 21 20  2  0
 20 22  1  1
 23 20  1  0
 24 23  1  0
 25 24  1  0
 26 25  1  0
M  CHG  2  17   1  22  -1
M  END
>  <SMILES>  (44) 
CCCNS(=O)([O-])=C1C=CC(COC(=O)C(=O)Nc2cncc(O)c2)=[S+]1

>  <scaffold>  (44) 
pyridine

$$$$

     RDKit          3D

 30 32  0  0  0  0  0  0  0  0999 V2000
   -0.0000   -0.0000    0.0000 C   0  0  0  0  0  0  0  0  0  0  0  0
    0.0000   -0.0000    1.3393 N   0  0  0  0  0  0  0  0  0  0  0  0
    1.1543    0.0000    1.9724 C   0  0  0  0  0  0  0  0  0  0  0  0
    1.1786    0.0000   -0.7595 C   0  0  0  0  0  0  0  0  0  0  0  0
    2.4036   -0.0000   -0.1278 C   0  0  0  0  0  0  0  0  0  0  0  0
    2.4036   -0.0000    1.2584 C   0  0  0  0  0  0  0  0  0  0  0  0
   -1.2371   -0.0608   -0.5677 N   0  0  0  0  0  0  0  0  0  0  0  0
   -1.4307   -0.1230   -1.8838 N   0  0  0  0  0  0  0  0  0  0  0  0
   -2.6291   -0.2266   -2.3808 C   0  0  0  0  0  0  0  0  0  0  0  0
   -2.6992   -0.3402   -3.8091 C   0  0  0  0  0  0  0  0  0  0  0  0
   -1.6198   -0.4019   -4.6254 C   0  0  0  0  0  0  0  0  0  0  0  0
   -3.8325   -0.2803   -1.5127 C   0  0  0  0  0  0  0  0  0  0  0  0
   -3.9827    0.3535   -0.4869 O   0  0  0  0  0  0  0  0  0  0  0  0
   -1.6382   -0.4635   -6.0504 C   0  0  0  0  0  0  0  0  0  0  0  0
   -0.5848   -0.5756   -6.9074 C   0  0  0  0  0  0  0  0  0  0  0  0
   -2.8292   -0.4022   -6.6932 O   0  0  0  0  0  0  0  0  0  0  0  0
   -1.1537   -0.5370   -8.1883 C   0  0  0  0  0  0  0  0  0  0  0  0
   -2.5062   -0.4308   -8.0006 C   0  0  0  0  0  0  0  0  0  0  0  0
   -4.7268   -1.1362   -2.0438 O   0  0  0  0  0  0  0  0  0  0  0  0
   -5.9203   -1.4089   -1.3936 C   0  0  0  0  0  0  0  0  0  0  0  0
   -6.4439   -2.6797   -1.6269 C   0  0  0  0  0  0  0  0  0  0  0  0
   -6.6345   -0.5038   -0.6241 C   0  0  0  0  0  0  0  0  0  0  0  0
   -7.5985   -3.0871   -0.9940 C   0  0  0  0  0  0  0  0  0  0  0  0
   -7.8530   -0.8839   -0.0635 C   0  0  0  0  0  0  0  0  0  0  0  0
   -8.2706   -2.2018   -0.1657 C   0  0  0  0  0  0  0  0  0  0  0  0
   -8.5657   -0.0448    0.7394 O   0  0  0  0  0  0  0  0  0  0  0  0
   -8.0884    1.2655    1.0393 C   0  0  0  0  0  0  0  0  0  0  0  0
   -9.1143    1.9949    1.9053 C   0  0  0  0  0  0  0  0  0  0  0  0
  -10.3930    2.2931    1.1241 C   0  0  0  0  0  0  0  0  0  0  0  0
  -11.4316    3.0712    1.9305 C   0  0  0  0  0  0  0  0  0  0  0  0
  2  1  2  0
  3  2  1  0
  4  1  1  0
  5  4  2  0
  6  5  1  0
  6  3  2  0
  7  1  1  0
  8  7  1  0
  9  8  2  0
 10  9  1  0
 11 10  2  0
 12  9  1  0
 13 12  2  0
 14 11  1  0
 15 14  2  0
 16 14  1  0
 17 15  1  0
 18 17  2  0
 18 16  1  0
 19 12  1  0
 20 19  1  0
 21 20  2  0
 22 20  1  0
 23 21  1  0
 24 22  2  0
 25 24  1  0
 25 23  2  0
 26 24  1  0
 27 26  1  0
 28 27  1  0
 29 28  1  0
 30 29  1  0
M  END
>  <SMILES>  (45) 
CCCCOc1cccc(OC(=O)C(C=Cc2ccco2)=NNc2ccccn2)c1

>  <scaffold>  (45) 
pyridine

$$$$

     RDKit          3D

 20 22  0  0  0  0  0  0  0  0999 V2000
    0.0000    0.0000   -0.0000 C   0  0  0  0  0  0  0  0  0  0  0  0
   -0.0000   -0.0000    1.3862 C   0  0  0  0  0  0  0  0  0  0  0  0
    1.2042   -0.0000    2.0726 C   0  0  0  0  0  0  0  0  0  0  0  0
    1.2320   -0.0000   -0.6353 C   0  0  0  0  0  0  0  0  0  0  0  0
    2.3708    0.0559    0.0229 N   0  0  0  0  0  0  0  0  0  0  0  0
    2.3701    0.1153    1.3457 C   0  0  0  0  0  0  0  0  0  0  0  0
    3.9687    0.2540    2.0759 S   0  0  0  0  0  0  0  0  0  0  0  0
    4.9854   -0.0830    0.6245 C   0  0  0  0  0  0  0  0  0  0  0  0
    5.8217    0.9101    0.1389 C   0  0  0  0  0  0  0  0  0  0  0  0
    4.9134   -1.3400    0.0447 C   0  0  0  0  0  0  0  0  0  0  0  0
    6.6245    0.5868   -0.9541 C   0  0  0  0  0  0  0  0  0  0  0  0
    5.7125   -1.6609   -1.0416 C   0  0  0  0  0  0  0  0  0  0  0  0
    6.5686   -0.6513   -1.5925 C   0  0  0  0  0  0  0  0  0  0  0  0
    7.5597    1.5820   -1.4690 C   0  0  0  0  0  0  0  0  0  0  0  0
    8.1760    2.5936   -0.8115 C   0  0  0  0  0  0  0  0  0  0  0  0
    7.9384    1.3994   -2.7733 N   0  0  0  0  0  0  0  0  0  0  0  0
    9.2339    3.4510   -1.8349 S   0  0  0  0  0  0  0  0  0  0  0  0
    8.7866    2.2899   -3.0987 C   0  0  0  0  0  0  0  0  0  0  0  0
    9.2308    2.3012   -4.3541 O   0  0  0  0  0  0  0  0  0  0  0  0
   10.3427    3.0614   -4.6812 C   0  0  0  0  0  0  0  0  0  0  0  0
  2  1  2  0
  3  2  1  0
  4  1  1  0
  5  4  2  0
  6  5  1  0
  6  3  2  0
  7  6  1  0
  8  7  1  0
  9  8  2  0
 10  8  1  0
 11  9  1  0
 12 10  2  0
 13 12  1  0
 13 11  2  0
 14 11  1  0
 15 14  2  0
 16 14  1  0
 17 15  1  0
 18 17  1  0
 18 16  2  0
 19 18  1  0
 20 19  1  0
M  END
>  <SMILES>  (46) 
COc1nc(-c2cccc(Sc3ccccn3)c2)cs1

>  <scaffold>  (46) 
pyridine

$$$$

     RDKit          3D

 31 33  0  0  0  0  0  0  0  0999 V2000
   -0.0000   -0.0000    0.0000 C   0  0  0  0  0  0  0  0  0  0  0  0
   -0.0000    0.0000    1.3241 N   0  0  0  0  0  0  0  0  0  0  0  0
    1.1346   -0.0000    2.0213 C   0  0  0  0  0  0  0  0  0  0  0  0
    1.1854    0.0000   -0.7638 C   0  0  0  0  0  0  0  0  0  0  0  0
    2.3775   -0.0586   -0.0747 C   0  0  0  0  0  0  0  0  0  0  0  0
    2.3768   -0.1152    1.3343 C   0  0  0  0  0  0  0  0  0  0  0  0
    1.0070    0.0528    3.3690 N   0  0  0  0  0  0  0  0  0  0  0  0
    3.6050   -0.2235    1.9849 C   0  0  0  0  0  0  0  0  0  0  0  0
    4.6469   -0.3639    2.4611 N   0  0  0  0  0  0  0  0  0  0  0  0
    3.5781   -0.1174   -0.6997 O   0  0  0  0  0  0  0  0  0  0  0  0
   -1.2301   -0.0604   -0.5645 N   0  0  0  0  0  0  0  0  0  0  0  0
    3.6362   -0.2439   -2.1112 C   0  0  0  0  0  0  0  0  0  0  0  0
    3.3301   -1.6704   -2.5647 C   0  0  0  0  0  0  0  0  0  0  0  0
   -1.4814    0.0902   -1.9773 C   0  0  0  0  0  0  0  0  0  0  0  0
   -1.3039    1.4820   -2.5130 C   0  0  0  0  0  0  0  0  0  0  0  0
   -0.4584    1.8687   -3.4770 C   0  0  0  0  0  0  0  0  0  0  0  0
   -2.1896    2.7871   -1.7713 S   0  0  0  0  0  0  0  0  0  0  0  0
   -0.5044    3.2520   -3.7011 C   0  0  0  0  0  0  0  0  0  0  0  0
   -1.4065    3.9065   -2.8536 C   0  0  0  0  0  0  0  0  0  0  0  0
   -1.6899    5.3233   -2.7190 C   0  0  0  0  0  0  0  0  0  0  0  0
   -1.2443    6.1678   -3.4366 O   0  0  0  0  0  0  0  0  0  0  0  0
   -2.5572    5.5814   -1.7316 O   0  0  0  0  0  0  0  0  0  0  0  0
   -2.9540    6.8647   -1.3586 C   0  0  0  0  0  0  0  0  0  0  0  0
   -2.0400    7.8515   -1.1964 C   0  0  0  0  0  0  0  0  0  0  0  0
   -4.2964    7.0850   -1.1372 C   0  0  0  0  0  0  0  0  0  0  0  0
   -2.4767    9.0983   -0.7768 C   0  0  0  0  0  0  0  0  0  0  0  0
   -4.7345    8.3391   -0.7142 C   0  0  0  0  0  0  0  0  0  0  0  0
   -3.8082    9.3295   -0.4685 C   0  0  0  0  0  0  0  0  0  0  0  0
   -4.3318   10.6507   -0.0688 C   0  0  0  0  0  0  0  0  0  0  0  0
   -5.4898   10.9033    0.1655 O   0  0  0  0  0  0  0  0  0  0  0  0
   -3.3952   11.6180   -0.0298 O   0  0  0  0  0  0  0  0  0  0  0  0
  2  1  2  0
  3  2  1  0
  4  1  1  0
  5  4  2  0
  6  5  1  0
  6  3  2  0
  7  3  1  0
  8  6  1  0
  9  8  3  0
 10  5  1  0
 11  1  1  0
 12 10  1  0
 13 12  1  0
 14 11  1  0
 15 14  1  0
 16 15  1  0
 17 15  2  0
 18 16  2  0
 19 18  1  0
 19 17  1  0
 20 19  2  0
 21 20  1  0
 22 20  1  0
 23 22  1  0
 24 23  2  0
 25 23  1  0
 26 24  1  0
 27 25  2  0
 28 27  1  0
 28 26  2  0
 29 28  1  0
 30 29  2  0
 31 29  1  0
M  CHG  2  17   1  21  -1
M  END
>  <SMILES>  (47) 
CCOc1cc(NCC2=[S+]C(=C([O-])Oc3ccc(C(=O)O)cc3)C=C2)nc(N)c1C#N

>  <scaffold>  (47) 
pyridine

$$$$

     RDKit          3D

 28 29  0  0  0  0  0  0  0  0999 V2000
    0.0000   -0.0000   -0.0000 C   0  0  0  0  0  0  0  0  0  0  0  0
    0.0000   -0.0000    1.3317 N   0  0  0  0  0  0  0  0  0  0  0  0
    1.1646   -0.0000    1.9457 C   0  0  0  0  0  0  0  0  0  0  0  0
    1.1719   -0.0000   -0.7551 C   0  0  0  0  0  0  0  0  0  0  0  0
    2.4039    0.0000   -0.1198 C   0  0  0  0  0  0  0  0  0  0  0  0
    2.4039    0.0000    1.2663 C   0  0  0  0  0  0  0  0  0  0  0  0
   -1.3100    0.0644   -0.6012 C   0  0  0  0  0  0  0  0  0  0  0  0
   -1.4273    0.1198   -1.8666 N   0  0  0  0  0  0  0  0  0  0  0  0
   -2.6676    0.2271   -2.3810 N   0  0  0  0  0  0  0  0  0  0  0  0
   -2.8473    0.2409   -3.7474 C   0  0  0  0  0  0  0  0  0  0  0  0
   -3.9787    0.2951   -4.1679 O   0  0  0  0  0  0  0  0  0  0  0  0
   -1.7321    0.1427   -4.5241 N   0  0  0  0  0  0  0  0  0  0  0  0
   -1.5696    0.0715   -5.8989 C   0  0  0  0  0  0  0  0  0  0  0  0
   -0.2967   -0.0807   -6.4467 C   0  0  0  0  0  0  0  0  0  0  0  0
   -2.6538    0.2252   -6.7617 C   0  0  0  0  0  0  0  0  0  0  0  0
   -0.0811   -0.1067   -7.8078 C   0  0  0  0  0  0  0  0  0  0  0  0
   -2.4317    0.1951   -8.1458 C   0  0  0  0  0  0  0  0  0  0  0  0
   -1.1359    0.0191   -8.6859 C   0  0  0  0  0  0  0  0  0  0  0  0
   -3.5446    0.4038   -8.9727 N   0  0  0  0  0  0  0  0  0  0  0  0
   -3.6065    0.3704  -10.3334 C   0  0  0  0  0  0  0  0  0  0  0  0
   -2.6663    0.1453  -11.0581 O   0  0  0  0  0  0  0  0  0  0  0  0
   -4.8581    0.6785  -10.6972 O   0  0  0  0  0  0  0  0  0  0  0  0
   -5.1396    0.6418  -12.0951 C   0  0  0  0  0  0  0  0  0  0  0  0
   -5.9681   -0.6031  -12.4081 C   0  0  0  0  0  0  0  0  0  0  0  0
   -5.2114   -1.9024  -12.1367 C   0  0  0  0  0  0  0  0  0  0  0  0
   -6.0620   -3.1134  -12.5164 C   0  0  0  0  0  0  0  0  0  0  0  0
   -5.3702   -4.4414  -12.2126 C   0  0  0  0  0  0  0  0  0  0  0  0
   -6.2716   -5.6040  -12.5552 C   0  0  0  0  0  0  0  0  0  0  0  0
  2  1  2  0
  3  2  1  0
  4  1  1  0
  5  4  2  0
  6  5  1  0
  6  3  2  0
  7  1  1  0
  8  7  2  0
  9  8  1  0
 10  9  1  0
 11 10  2  0
 12 10  1  0
 13 12  1  0
 14 13  2  0
 15 13  1  0
 16 14  1  0
 17 15  2  0
 18 17  1  0
 18 16  2  0
 19 17  1  0
 20 19  1  0
 21 20  2  0
 22 20  1  0
 23 22  1  0
 24 23  1  0
 25 24  1  0
 26 25  1  0
 27 26  1  0
 28 27  1  0
M  END
>  <SMILES>  (48) 
CCCCCCOC(=O)Nc1cccc(NC(=O)NN=Cc2ccccn2)c1

>  <scaffold>  (48) 
pyridine

$$$$

     RDKit          3D

 21 22  0  0  0  0  0  0  0  0999 V2000
   -0.0000   -0.0000   -0.0000 C   0  0  0  0  0  0  0  0  0  0  0  0
    0.0000    0.0000    1.3165 N   0  0  0  0  0  0  0  0  0  0  0  0
    1.1713    0.0000    1.9341 C   0  0  0  0  0  0  0  0  0  0  0  0
    1.1719    0.0000   -0.7551 C   0  0  0  0  0  0  0  0  0  0  0  0
    2.4039   -0.0000   -0.1198 C   0  0  0  0  0  0  0  0  0  0  0  0
    2.4039    0.0000    1.2663 C   0  0  0  0  0  0  0  0  0  0  0  0
    1.0398   -0.0547   -2.1500 N   0  0  0  0  0  0  0  0  0  0  0  0
    2.0046    0.1769   -3.0724 C   0  0  0  0  0  0  0  0  0  0  0  0
    3.1525    0.4725   -2.8385 O   0  0  0  0  0  0  0  0  0  0  0  0
    1.4822    0.0847   -4.5052 C   0  0  0  0  0  0  0  0  0  0  0  0
    0.4362   -0.8128   -4.7154 O   0  0  0  0  0  0  0  0  0  0  0  0
    0.7016   -2.1643   -4.6640 C   0  0  0  0  0  0  0  0  0  0  0  0
   -0.3265   -3.0088   -5.0801 C   0  0  0  0  0  0  0  0  0  0  0  0
    1.8994   -2.7532   -4.2345 C   0  0  0  0  0  0  0  0  0  0  0  0
   -0.1988   -4.3959   -5.0235 C   0  0  0  0  0  0  0  0  0  0  0  0
    2.0235   -4.1012   -4.1797 C   0  0  0  0  0  0  0  0  0  0  0  0
    0.9924   -4.9241   -4.5994 C   0  0  0  0  0  0  0  0  0  0  0  0
    1.2561   -6.2680   -4.5519 O   0  0  0  0  0  0  0  0  0  0  0  0
   -1.8420   -2.3699   -5.6263 Cl  0  0  0  0  0  0  0  0  0  0  0  0
    0.2614   -7.1694   -4.9569 C   0  0  0  0  0  0  0  0  0  0  0  0
   -0.9421   -7.1147   -4.0316 C   0  0  0  0  0  0  0  0  0  0  0  0
  2  1  2  0
  3  2  1  0
  4  1  1  0
  5  4  2  0
  6  5  1  0
  6  3  2  0
  7  4  1  0
  8  7  1  0
  9  8  2  0
 10  8  1  0
 11 10  1  0
 12 11  1  0
 13 12  2  0
 14 12  1  0
 15 13  1  0
 16 14  2  0
 17 16  1  0
 17 15  2  0
 18 17  1  0
 19 13  1  0
 20 18  1  0
 21 20  1  0
M  END
>  <SMILES>  (49) 
CCOc1ccc(OCC(=O)Nc2cccnc2)c(Cl)c1

>  <scaffold>  (49) 
pyridine

$$$$

     RDKit          3D

 18 19  0  0  0  0  0  0  0  0999 V2000
    0.0000   -0.0000    0.0000 C   0  0  0  0  0  0  0  0  0  0  0  0
   -0.0000   -0.0000    1.3862 C   0  0  0  0  0  0  0  0  0  0  0  0
    1.2223   -0.0000    2.0566 C   0  0  0  0  0  0  0  0  0  0  0  0
    1.2462   -0.0000   -0.6426 C   0  0  0  0  0  0  0  0  0  0  0  0
    2.4230   -0.0000   -0.0358 N   0  0  0  0  0  0  0  0  0  0  0  0
    2.3599   -0.0559    1.2781 C   0  0  0  0  0  0  0  0  0  0  0  0
    1.1965   -0.0497   -2.0191 O   0  0  0  0  0  0  0  0  0  0  0  0
    1.2715    0.0492    3.4173 N   0  0  0  0  0  0  0  0  0  0  0  0
    2.1429    0.6690   -2.7171 C   0  0  0  0  0  0  0  0  0  0  0  0
    2.5184    0.1641   -3.9612 C   0  0  0  0  0  0  0  0  0  0  0  0
    2.6374    1.8924   -2.3192 C   0  0  0  0  0  0  0  0  0  0  0  0
    3.4202    0.8712   -4.7126 C   0  0  0  0  0  0  0  0  0  0  0  0
    3.5481    2.5973   -3.0763 C   0  0  0  0  0  0  0  0  0  0  0  0
    3.9949    2.0766   -4.3124 C   0  0  0  0  0  0  0  0  0  0  0  0
    4.9147    2.6569   -5.1202 O   0  0  0  0  0  0  0  0  0  0  0  0
    5.5602    3.8498   -4.7346 C   0  0  0  0  0  0  0  0  0  0  0  0
    3.5077   -0.1056    1.9209 O   0  0  0  0  0  0  0  0  0  0  0  0
    4.8014    0.0199    1.3333 C   0  0  0  0  0  0  0  0  0  0  0  0
  2  1  2  0
  3  2  1  0
  4  1  1  0
  5  4  2  0
  6  5  1  0
  6  3  2  0
  7  4  1  0
  8  3  1  0
  9  7  1  0
 10  9  2  0
 11  9  1  0
 12 10  1  0
 13 11  2  0
 14 13  1  0
 14 12  2  0
 15 14  1  0
 16 15  1  0
 17  6  1  0
 18 17  1  0
M  END
>  <SMILES>  (50) 
COc1ccc(Oc2ccc(N)c(OC)n2)cc1

>  <scaffold>  (50) 
pyridine

$$$$
