
     RDKit          3D

 31 33  0  0  0  0  0  0  0  0999 V2000
    0.0000   -0.0000    0.0000 C   0  0  0  0  0  0  0  0  0  0  0  0
    0.0000   -0.0000    1.3704 C   0  0  0  0  0  0  0  0  0  0  0  0
    1.2898    0.0000    1.9202 C   0  0  0  0  0  0  0  0  0  0  0  0
    1.6157    0.0000   -0.6536 S   0  0  0  0  0  0  0  0  0  0  0  0
    2.3050    0.0679    0.9350 C   0  0  0  0  0  0  0  0  0  0  0  0
   -1.1705   -0.0575   -0.8417 C   0  0  0  0  0  0  0  0  0  0  0  0
   -0.9082    0.0082   -2.1456 N   0  0  0  0  0  0  0  0  0  0  0  0
   -2.4711   -0.1856   -0.3796 C   0  0  0  0  0  0  0  0  0  0  0  0
   -1.9379   -0.0876   -2.9482 C   0  0  0  0  0  0  0  0  0  0  0  0
   -3.5549   -0.2857   -1.2251 C   0  0  0  0  0  0  0  0  0  0  0  0
   -3.2627   -0.2493   -2.5740 C   0  0  0  0  0  0  0  0  0  0  0  0
   -4.3813   -0.3052   -3.3773 O   0  0  0  0  0  0  0  0  0  0  0  0
    4.0083    0.0378    1.2526 Cl  0  0  0  0  0  0  0  0  0  0  0  0
   -4.2691   -1.0017   -4.5430 C   0  0  0  0  0  0  0  0  0  0  0  0
   -3.3341   -1.6252   -4.9476 O   0  0  0  0  0  0  0  0  0  0  0  0
   -5.4658   -0.8616   -5.1623 N   0  0  0  0  0  0  0  0  0  0  0  0
   -5.8381   -1.4600   -6.3838 C   0  0  0  0  0  0  0  0  0  0  0  0
   -7.1724   -1.3032   -6.7560 C   0  0  0  0  0  0  0  0  0  0  0  0
   -4.9905   -2.2463   -7.1771 C   0  0  0  0  0  0  0  0  0  0  0  0
   -7.5661   -1.8229   -7.9524 C   0  0  0  0  0  0  0  0  0  0  0  0
   -5.3823   -2.7674   -8.3824 C   0  0  0  0  0  0  0  0  0  0  0  0
   -6.7219   -2.5113   -8.8480 C   0  0  0  0  0  0  0  0  0  0  0  0
   -7.1472   -2.9691  -10.0500 N   0  0  0  0  0  0  0  0  0  0  0  0
   -6.4440   -3.6306  -11.1111 C   0  0  0  0  0  0  0  0  0  0  0  0
   -7.3330   -4.0286  -12.2769 C   0  0  0  0  0  0  0  0  0  0  0  0
   -6.6225   -4.6881  -13.4578 C   0  0  0  0  0  0  0  0  0  0  0  0
   -7.5410   -5.0151  -14.6114 C   0  0  0  0  0  0  0  0  0  0  0  0
   -7.9633   -6.1255  -14.8316 O   0  0  0  0  0  0  0  0  0  0  0  0
   -7.9164   -3.8896  -15.1821 O   0  0  0  0  0  0  0  0  0  0  0  0
   -8.8308   -4.0621  -16.2524 C   0  0  0  0  0  0  0  0  0  0  0  0
   -8.1575   -4.4926  -17.5444 C   0  0  0  0  0  0  0  0  0  0  0  0
  2  1  2  0
  3  2  1  0
  4  1  1  0
  5  4  1  0
  5  3  2  0
  6  1  1  0
  7  6  2  0
  8  6  1  0
  9  7  1  0
 10  8  2  0
 11 10  1  0
 11  9  2  0
 12 11  1  0
 13  5  1  0
 14 12  1  0
 15 14  2  0
 16 14  1  0
 17 16  1  0
 18 17  2  0
 19 17  1  0
 20 18  1  0
 21 19  2  0
 22 21  1  0
 22 20  2  0
 23 22  1  0
 24 23  1  0
 25 24  1  0
 26 25  1  0
 27 26  1  0
 28 27  2  0
 29 27  1  0
 30 29  1  0
 31 30  1  0
M  END
>  <SMILES>  (1) 
CCOC(=O)CCCNc1ccc(NC(=O)Oc2ccc(-c3ccc(Cl)s3)nc2)cc1

>  <scaffold>  (1) 
thiophene

$$$$

     RDKit          3D

 19 20  0  0  0  0  0  0  0  0999 V2000
    0.0000   -0.0000   -0.0000 C   0  0  0  0  0  0  0  0  0  0  0  0
   -0.0000    0.0000    1.3704 C   0  0  0  0  0  0  0  0  0  0  0  0
    1.2879   -0.0000    1.9446 C   0  0  0  0  0  0  0  0  0  0  0  0
    1.6065    0.0000   -0.6499 S   0  0  0  0  0  0  0  0  0  0  0  0
    2.2879    0.0671    0.9206 C   0  0  0  0  0  0  0  0  0  0  0  0
   -1.1908    0.0585   -0.8562 C   0  0  0  0  0  0  0  0  0  0  0  0
   -2.3031    0.1131   -0.4058 O   0  0  0  0  0  0  0  0  0  0  0  0
    1.5069   -0.0587    3.4120 C   0  0  0  0  0  0  0  0  0  0  0  0
   -0.8590   -0.0109   -2.1520 O   0  0  0  0  0  0  0  0  0  0  0  0
   -1.9221    0.0910   -3.0853 C   0  0  0  0  0  0  0  0  0  0  0  0
   -1.9694    1.4499   -3.6817 C   0  0  0  0  0  0  0  0  0  0  0  0
   -1.3878    2.4668   -3.1861 N   0  0  0  0  0  0  0  0  0  0  0  0
   -2.8727    1.7476   -5.1304 S   0  0  0  0  0  0  0  0  0  0  0  0
   -1.6288    3.5987   -3.8905 C   0  0  0  0  0  0  0  0  0  0  0  0
   -2.4264    3.4168   -4.9971 C   0  0  0  0  0  0  0  0  0  0  0  0
   -2.9362    4.4210   -5.9778 C   0  0  0  0  0  0  0  0  0  0  0  0
   -0.9873    4.9012   -3.5064 C   0  0  0  0  0  0  0  0  0  0  0  0
   -4.4494    4.6110   -5.7894 C   0  0  0  0  0  0  0  0  0  0  0  0
   -5.0116    5.6713   -6.7349 C   0  0  0  0  0  0  0  0  0  0  0  0
  2  1  1  0
  3  2  2  0
  4  1  1  0
  5  4  2  0
  5  3  1  0
  6  1  2  0
  7  6  1  0
  8  3  1  0
  9  6  1  0
 10  9  1  0
 11 10  1  0
 12 11  2  0
 13 11  1  0
 14 12  1  0
 15 14  2  0
 15 13  1  0
 16 15  1  0
 17 14  1  0
 18 16  1  0
 19 18  1  0
M  CHG  2   4   1   7  -1
M  END
>  <SMILES>  (2) 
CCCc1sc(COC([O-])=C2C=C(C)C=[S+]2)nc1C

>  <scaffold>  (2) 
thiophene

$$$$

     RDKit          3D

 28 30  0  0  0  0  0  0  0  0999 V2000
    0.0000   -0.0000    0.0000 C   0  0  0  0  0  0  0  0  0  0  0  0
   -0.0000   -0.0000    1.3704 C   0  0  0  0  0  0  0  0  0  0  0  0
    1.5670    0.0000    2.0384 S   0  0  0  0  0  0  0  0  0  0  0  0
    1.3073    0.0000   -0.5288 C   0  0  0  0  0  0  0  0  0  0  0  0
    2.2750    0.0507    0.4401 C   0  0  0  0  0  0  0  0  0  0  0  0
   -1.1976    0.0588   -0.8612 C   0  0  0  0  0  0  0  0  0  0  0  0
   -1.2658   -0.3603   -1.9923 O   0  0  0  0  0  0  0  0  0  0  0  0
    3.7115    0.1227    0.2475 C   0  0  0  0  0  0  0  0  0  0  0  0
    4.1897    0.0333   -0.8737 O   0  0  0  0  0  0  0  0  0  0  0  0
   -2.2070    0.6638   -0.2543 O   0  0  0  0  0  0  0  0  0  0  0  0
    4.4056    0.3140    1.3768 O   0  0  0  0  0  0  0  0  0  0  0  0
   -3.3943    0.8313   -0.9965 C   0  0  0  0  0  0  0  0  0  0  0  0
   -4.5283    0.1043   -0.6370 C   0  0  0  0  0  0  0  0  0  0  0  0
   -3.4853    1.7379   -2.0516 C   0  0  0  0  0  0  0  0  0  0  0  0
   -5.6633    0.2658   -1.4303 C   0  0  0  0  0  0  0  0  0  0  0  0
   -4.6071    1.9004   -2.8357 C   0  0  0  0  0  0  0  0  0  0  0  0
   -5.6337    1.1146   -2.5157 C   0  0  0  0  0  0  0  0  0  0  0  0
    5.8315    0.4583    1.3131 C   0  0  0  0  0  0  0  0  0  0  0  0
   -2.1033    2.7260   -2.3933 Cl  0  0  0  0  0  0  0  0  0  0  0  0
    6.1681    1.8010    0.7304 C   0  0  0  0  0  0  0  0  0  0  0  0
    5.9636    2.9812    1.4279 C   0  0  0  0  0  0  0  0  0  0  0  0
    6.6850    1.8975   -0.5607 C   0  0  0  0  0  0  0  0  0  0  0  0
    6.2106    4.2371    0.9166 C   0  0  0  0  0  0  0  0  0  0  0  0
    6.9326    3.1537   -1.0710 C   0  0  0  0  0  0  0  0  0  0  0  0
    6.7007    4.3412   -0.3930 C   0  0  0  0  0  0  0  0  0  0  0  0
    6.9323    5.5259   -1.0248 O   0  0  0  0  0  0  0  0  0  0  0  0
    6.7467    6.7665   -0.3629 C   0  0  0  0  0  0  0  0  0  0  0  0
    7.7541    7.0106    0.7357 C   0  0  0  0  0  0  0  0  0  0  0  0
  2  1  1  0
  3  2  2  0
  4  1  2  0
  5  4  1  0
  5  3  1  0
  6  1  1  0
  7  6  2  0
  8  5  2  0
  9  8  1  0
 10  6  1  0
 11  8  1  0
 12 10  1  0
 13 12  2  0
 14 12  1  0
 15 13  1  0
 16 14  2  0
 17 15  2  0
 17 16  1  0
 18 11  1  0
 19 14  1  0
 20 18  1  0
 21 20  2  0
 22 20  1  0
 23 21  1  0
 24 22  2  0
 25 24  1  0
 25 23  2  0
 26 25  1  0
 27 26  1  0
 28 27  1  0
M  CHG  2   3   1   9  -1
M  END
>  <SMILES>  (3) 
CCOc1ccc(COC([O-])=C2C=C(C(=O)Oc3ccccc3Cl)C=[S+]2)cc1

>  <scaffold>  (3) 
thiophene

$$$$

     RDKit          3D

 37 38  0  0  0  0  0  0  0  0999 V2000
   -0.0000    0.0000    0.0000 C   0  0  0  0  0  0  0  0  0  0  0  0
   -0.0000    0.0000    1.3704 C   0  0  0  0  0  0  0  0  0  0  0  0
    1.2987    0.0000    1.8989 C   0  0  1  0  0  0  0  0  0  0  0  0
    1.5973   -0.0000   -0.6462 S   0  0  0  0  0  0  0  0  0  0  0  0
    2.2866    0.0679    0.9424 C   0  0  2  0  0  0  0  0  0  0  0  0
   -1.1657    0.0000   -0.9333 C   0  0  0  0  0  0  0  0  0  0  0  0
   -0.9605   -0.1371   -2.1231 O   0  0  0  0  0  0  0  0  0  0  0  0
    1.6726   -0.0744    3.7374 Br  0  0  0  0  0  0  0  0  0  0  0  0
    3.6167    0.1484    1.1869 N   0  0  0  0  0  0  0  0  0  0  0  0
   -2.4227    0.1238   -0.4223 N   0  0  0  0  0  0  0  0  0  0  0  0
   -3.6240    0.1939   -1.2185 C   0  0  0  0  0  0  0  0  0  0  0  0
   -4.1241    1.5800   -1.3084 C   0  0  0  0  0  0  0  0  0  0  0  0
   -5.2456    1.9760   -0.8371 N   0  0  0  0  0  0  0  0  0  0  0  0
   -3.1669    2.7722   -2.1242 S   0  0  0  0  0  0  0  0  0  0  0  0
   -5.4495    3.3207   -1.0048 C   0  0  0  0  0  0  0  0  0  0  0  0
   -4.3962    3.9121   -1.6853 C   0  0  0  0  0  0  0  0  0  0  0  0
   -6.7083    3.9654   -0.5817 C   0  0  0  0  0  0  0  0  0  0  0  0
   -7.0089    5.1269   -0.7247 O   0  0  0  0  0  0  0  0  0  0  0  0
   -7.5331    3.0536   -0.0505 O   0  0  0  0  0  0  0  0  0  0  0  0
   -8.8186    3.5480    0.3508 C   0  0  0  0  0  0  0  0  0  0  0  0
   -8.7758    4.2877    1.6870 C   0  0  0  0  0  0  0  0  0  0  0  0
   -8.2656    3.4003    2.8213 C   0  0  0  0  0  0  0  0  0  0  0  0
   -8.2935    4.1639    4.1343 C   0  0  0  0  0  0  0  0  0  0  0  0
   -7.8302    3.2242    5.2343 C   0  0  0  0  0  0  0  0  0  0  0  0
   -7.8924    3.9303    6.5877 C   0  0  0  0  0  0  0  0  0  0  0  0
   -7.4703    2.9292    7.6620 C   0  0  0  0  0  0  0  0  0  0  0  0
   -7.4631    3.6040    9.0327 C   0  0  0  0  0  0  0  0  0  0  0  0
   -6.9836    2.5795   10.0598 C   0  0  0  0  0  0  0  0  0  0  0  0
   -7.0104    3.1906   11.4599 C   0  0  0  0  0  0  0  0  0  0  0  0
   -6.5760    2.1129   12.4520 C   0  0  0  0  0  0  0  0  0  0  0  0
   -6.6385    2.6594   13.8774 C   0  0  0  0  0  0  0  0  0  0  0  0
   -6.2487    1.5309   14.8307 C   0  0  0  0  0  0  0  0  0  0  0  0
   -6.2737    2.1376   16.2232 C   0  0  0  0  0  0  0  0  0  0  0  0
   -5.8264    0.9902   17.1275 C   0  0  0  0  0  0  0  0  0  0  0  0
   -5.7822    1.5674   18.5414 C   0  0  0  0  0  0  0  0  0  0  0  0
   -5.3852    0.3735   19.4083 C   0  0  0  0  0  0  0  0  0  0  0  0
   -5.3022    1.0121   20.7938 C   0  0  0  0  0  0  0  0  0  0  0  0
  2  1  2  0
  3  2  1  0
  4  1  1  0
  5  4  1  0
  5  3  1  0
  6  1  1  0
  7  6  2  0
  3  8  1  1
  5  9  1  1
 10  6  1  0
 11 10  1  0
 12 11  1  0
 13 12  2  0
 14 12  1  0
 15 13  1  0
 16 15  1  0
 16 14  2  0
 17 15  2  0
 18 17  1  0
 19 17  1  0
 20 19  1  0
 21 20  1  0
 22 21  1  0
 23 22  1  0
 24 23  1  0
 25 24  1  0
 26 25  1  0
 27 26  1  0
 28 27  1  0
 29 28  1  0
 30 29  1  0
 31 30  1  0
 32 31  1  0
 33 32  1  0
 34 33  1  0
 35 34  1  0
 36 35  1  0
 37 36  1  0
M  CHG  2  14   1  18  -1
M  END
>  <SMILES>  (4) 
CCCCCCCCCCCCCCCCCCOC([O-])=C1C=[S+]C(CNC(=O)C2=CC(Br)C(N)S2)=N1

>  <scaffold>  (4) 
thiophene

$$$$

     RDKit          3D

 21 22  0  0  0  0  0  0  0  0999 V2000
   -0.0000    0.0000    0.0000 S   0  0  0  0  0  0  0  0  0  0  0  0
    0.0000   -0.0000    1.7330 C   0  0  0  0  0  0  0  0  0  0  0  0
    1.2630   -0.0000    2.2230 C   0  0  0  0  0  0  0  0  0  0  0  0
    1.7315   -0.0000   -0.0722 C   0  0  0  0  0  0  0  0  0  0  0  0
    2.2765   -0.0537    1.1840 C   0  0  0  0  0  0  0  0  0  0  0  0
   -1.2917   -0.0635    2.4796 C   0  0  0  0  0  0  0  0  0  0  0  0
    2.3865    0.0516   -1.2305 O   0  0  0  0  0  0  0  0  0  0  0  0
    3.7163   -0.1236    1.4122 C   0  0  0  0  0  0  0  0  0  0  0  0
    4.5236   -0.1931    0.5066 O   0  0  0  0  0  0  0  0  0  0  0  0
    3.9959   -0.1135    2.7220 O   0  0  0  0  0  0  0  0  0  0  0  0
    5.3642   -0.2329    3.0755 C   0  0  0  0  0  0  0  0  0  0  0  0
    5.8831   -1.6328    3.1028 C   0  0  0  0  0  0  0  0  0  0  0  0
    6.7986   -2.0950    3.8677 N   0  0  0  0  0  0  0  0  0  0  0  0
    5.1684   -2.7737    2.0273 S   0  0  0  0  0  0  0  0  0  0  0  0
    7.1276   -3.4003    3.6566 C   0  0  0  0  0  0  0  0  0  0  0  0
    6.3271   -3.8889    2.6731 C   0  0  0  0  0  0  0  0  0  0  0  0
    8.1329   -4.1501    4.4828 C   0  0  0  0  0  0  0  0  0  0  0  0
    7.5213   -4.3943    5.8615 C   0  0  0  0  0  0  0  0  0  0  0  0
    7.9868   -4.0242    6.8974 O   0  0  0  0  0  0  0  0  0  0  0  0
    6.4021   -5.1098    5.7671 O   0  0  0  0  0  0  0  0  0  0  0  0
    5.7003   -5.3602    6.9930 C   0  0  0  0  0  0  0  0  0  0  0  0
  2  1  1  0
  3  2  2  0
  4  1  2  0
  5  4  1  0
  5  3  1  0
  6  2  1  0
  7  4  1  0
  8  5  2  0
  9  8  1  0
 10  8  1  0
 11 10  1  0
 12 11  1  0
 13 12  2  0
 14 12  1  0
 15 13  1  0
 16 14  1  0
 16 15  2  0
 17 15  1  0
 18 17  1  0
 19 18  2  0
 20 18  1  0
 21 20  1  0
M  CHG  2   1   1   9  -1
M  END
>  <SMILES>  (5) 
COC(=O)Cc1csc(COC([O-])=C2C=C(C)[S+]=C2O)n1

>  <scaffold>  (5) 
thiophene

$$$$

     RDKit          3D

 22 24  0  0  0  0  0  0  0  0999 V2000
   -0.0000    0.0000   -0.0000 C   0  0  0  0  0  0  0  0  0  0  0  0
   -0.0000    0.0000    1.3625 C   0  0  0  0  0  0  0  0  0  0  0  0
    1.6125    0.0000    2.0500 S   0  0  0  0  0  0  0  0  0  0  0  0
    1.3223    0.0000   -0.5349 C   0  0  0  0  0  0  0  0  0  0  0  0
    2.3069   -0.0516    0.4508 C   0  0  0  0  0  0  0  0  0  0  0  0
    1.7502    0.0563   -1.8945 C   0  0  0  0  0  0  0  0  0  0  0  0
    3.6158   -0.0095    0.2094 N   0  0  0  0  0  0  0  0  0  0  0  0
    3.1801    0.0909   -2.0061 N   0  0  0  0  0  0  0  0  0  0  0  0
    1.0705    0.1171   -2.8998 O   0  0  0  0  0  0  0  0  0  0  0  0
    3.9482    0.1396   -1.0247 C   0  0  0  0  0  0  0  0  0  0  0  0
    3.6527    0.1985   -3.3390 N   0  0  0  0  0  0  0  0  0  0  0  0
   -1.2552    0.0000   -0.8089 C   0  0  0  0  0  0  0  0  0  0  0  0
   -1.2045   -0.0592    2.2286 C   0  0  0  0  0  0  0  0  0  0  0  0
    5.6665    0.2656   -1.3984 S   0  0  0  0  0  0  0  0  0  0  0  0
    6.3854    0.0597    0.2205 C   0  0  0  0  0  0  0  0  0  0  0  0
    6.2678   -1.1361    0.9116 C   0  0  0  0  0  0  0  0  0  0  0  0
    7.2003    1.0629    0.7432 C   0  0  0  0  0  0  0  0  0  0  0  0
    6.8007   -1.2327    2.1876 C   0  0  0  0  0  0  0  0  0  0  0  0
    7.8171    0.9267    1.9682 C   0  0  0  0  0  0  0  0  0  0  0  0
    7.4948   -0.1727    2.7498 C   0  0  0  0  0  0  0  0  0  0  0  0
    8.1065   -0.1664    3.9672 O   0  0  0  0  0  0  0  0  0  0  0  0
    8.0028   -1.2980    4.7886 C   0  0  0  0  0  0  0  0  0  0  0  0
  2  1  2  0
  3  2  1  0
  4  1  1  0
  5  4  1  0
  5  3  2  0
  6  4  2  0
  7  5  1  0
  8  6  1  0
  9  6  1  0
 10  8  1  0
 10  7  2  0
 11  8  1  0
 12  1  1  0
 13  2  1  0
 14 10  1  0
 15 14  1  0
 16 15  2  0
 17 15  1  0
 18 16  1  0
 19 17  2  0
 20 19  1  0
 20 18  2  0
 21 20  1  0
 22 21  1  0
M  CHG  2   3   1   9  -1
M  END
>  <SMILES>  (6) 
COc1ccc(Sc2nc3[s+]c(C)c(C)c-3c([O-])n2N)cc1

>  <scaffold>  (6) 
thiophene

$$$$

     RDKit          3D

 20 21  0  0  0  0  0  0  0  0999 V2000
    0.0000   -0.0000    0.0000 C   0  0  0  0  0  0  0  0  0  0  0  0
    0.0000    0.0000    1.3625 C   0  0  0  0  0  0  0  0  0  0  0  0
    1.3222    0.0000    1.8755 C   0  0  0  0  0  0  0  0  0  0  0  0
    1.6065    0.0000   -0.6499 S   0  0  0  0  0  0  0  0  0  0  0  0
    2.2958   -0.0679    0.9387 C   0  0  0  0  0  0  0  0  0  0  0  0
   -1.0883    0.0000   -0.8713 N   0  0  0  0  0  0  0  0  0  0  0  0
    1.6196   -0.0592    3.3377 C   0  0  0  0  0  0  0  0  0  0  0  0
   -1.2552   -0.0000    2.1714 C   0  0  0  0  0  0  0  0  0  0  0  0
    3.6107   -0.1475    1.1804 O   0  0  0  0  0  0  0  0  0  0  0  0
   -0.9614   -0.0525   -2.2113 C   0  0  0  0  0  0  0  0  0  0  0  0
    0.1242   -0.0499   -2.7572 O   0  0  0  0  0  0  0  0  0  0  0  0
   -2.1143   -0.1002   -2.9651 N   0  0  0  0  0  0  0  0  0  0  0  0
   -3.3429   -0.0983   -2.4714 N   0  0  0  0  0  0  0  0  0  0  0  0
   -4.3596   -0.0955   -3.2841 C   0  0  0  0  0  0  0  0  0  0  0  0
   -5.6480   -0.0371   -2.6190 C   0  0  0  0  0  0  0  0  0  0  0  0
   -5.8516    0.0714   -1.2602 C   0  0  0  0  0  0  0  0  0  0  0  0
   -6.7818   -0.0815   -3.3592 O   0  0  0  0  0  0  0  0  0  0  0  0
   -7.2411    0.1396   -1.1697 C   0  0  0  0  0  0  0  0  0  0  0  0
   -7.7779    0.0438   -2.4726 C   0  0  0  0  0  0  0  0  0  0  0  0
   -4.2177   -0.0943   -4.7879 C   0  0  0  0  0  0  0  0  0  0  0  0
  2  1  2  0
  3  2  1  0
  4  1  1  0
  5  4  1  0
  5  3  2  0
  6  1  1  0
  7  3  1  0
  8  2  1  0
  9  5  1  0
 10  6  1  0
 11 10  2  0
 12 10  1  0
 13 12  1  0
 14 13  2  0
 15 14  1  0
 16 15  2  0
 17 15  1  0
 18 16  1  0
 19 18  2  0
 19 17  1  0
 20 14  1  0
M  END
>  <SMILES>  (7) 
CC(=NNC(=O)Nc1sc(O)c(C)c1C)c1ccco1

>  <scaffold>  (7) 
thiophene

$$$$

     RDKit          3D

 26 28  0  0  0  0  0  0  0  0999 V2000
    0.0000   -0.0000    0.0000 C   0  0  0  0  0  0  0  0  0  0  0  0
   -0.0000    0.0000    1.3548 C   0  0  0  0  0  0  0  0  0  0  0  0
    1.5960   -0.0000    2.0043 S   0  0  0  0  0  0  0  0  0  0  0  0
    1.3073   -0.0000   -0.5288 C   0  0  0  0  0  0  0  0  0  0  0  0
    2.3216    0.0498    0.3796 C   0  0  0  0  0  0  0  0  0  0  0  0
    3.6782    0.1180    0.1976 N   0  0  0  0  0  0  0  0  0  0  0  0
    4.6616    0.2157    1.1469 C   0  0  0  0  0  0  0  0  0  0  0  0
    4.2509    0.2437    2.2902 O   0  0  0  0  0  0  0  0  0  0  0  0
    5.9580    0.3254    0.7690 N   0  0  0  0  0  0  0  0  0  0  0  0
    7.1544    0.2768    1.5739 C   0  0  0  0  0  0  0  0  0  0  0  0
    7.8773   -1.0400    1.4153 C   0  0  0  0  0  0  0  0  0  0  0  0
    7.9757   -1.9456    2.4496 C   0  0  0  0  0  0  0  0  0  0  0  0
    8.4223   -1.3704    0.1664 C   0  0  0  0  0  0  0  0  0  0  0  0
    8.6028   -3.1554    2.2431 C   0  0  0  0  0  0  0  0  0  0  0  0
    9.0436   -2.5746   -0.0376 C   0  0  0  0  0  0  0  0  0  0  0  0
    9.1560   -3.5228    1.0174 C   0  0  0  0  0  0  0  0  0  0  0  0
    9.7511   -4.7456    0.7488 N   0  0  0  0  0  0  0  0  0  0  0  0
   10.2934   -5.5177    1.8404 C   0  0  0  0  0  0  0  0  0  0  0  0
   11.4712   -4.8847    2.5428 C   0  0  0  0  0  0  0  0  0  0  0  0
   11.5693   -4.7943    3.9306 C   0  0  0  0  0  0  0  0  0  0  0  0
   12.5146   -4.3485    1.7896 C   0  0  0  0  0  0  0  0  0  0  0  0
   12.5906   -4.2975    4.5815 N   0  0  0  0  0  0  0  0  0  0  0  0
   13.5500   -3.7343    2.4769 C   0  0  0  0  0  0  0  0  0  0  0  0
   13.6115   -3.8448    3.8702 C   0  0  0  0  0  0  0  0  0  0  0  0
   14.5818   -3.3093    4.6495 O   0  0  0  0  0  0  0  0  0  0  0  0
   15.6651   -2.6492    4.0153 C   0  0  0  0  0  0  0  0  0  0  0  0
  2  1  2  0
  3  2  1  0
  4  1  1  0
  5  4  2  0
  5  3  1  0
  6  5  1  0
  7  6  1  0
  8  7  2  0
  9  7  1  0
 10  9  1  0
 11 10  1  0
 12 11  2  0
 13 11  1  0
 14 12  1  0
 15 13  2  0
 16 15  1  0
 16 14  2  0
 17 16  1  0
 18 17  1  0
 19 18  1  0
 20 19  2  0
 21 19  1  0
 22 20  1  0
 23 21  2  0
 24 23  1  0
 24 22  2  0
 25 24  1  0
 26 25  1  0
M  END
>  <SMILES>  (8) 
COc1ccc(CNc2ccc(CNC(=O)Nc3cccs3)cc2)cn1

>  <scaffold>  (8) 
thiophene

$$$$

     RDKit          3D

 31 33  0  0  0  0  0  0  0  0999 V2000
    0.0000   -0.0000   -0.0000 C   0  0  0  0  0  0  0  0  0  0  0  0
   -0.0000   -0.0000    1.3704 C   0  0  0  0  0  0  0  0  0  0  0  0
    1.2987    0.0000    1.8989 C   0  0  0  0  0  0  0  0  0  0  0  0
    1.6065   -0.0000   -0.6499 S   0  0  0  0  0  0  0  0  0  0  0  0
    2.2879    0.0671    0.9206 C   0  0  0  0  0  0  0  0  0  0  0  0
   -1.1263    0.0000   -0.9018 C   0  0  0  0  0  0  0  0  0  0  0  0
   -1.0783   -0.1792   -2.1027 O   0  0  0  0  0  0  0  0  0  0  0  0
   -2.2710    0.2867   -0.2205 O   0  0  0  0  0  0  0  0  0  0  0  0
   -3.4810    0.1879   -0.8561 C   0  0  0  0  0  0  0  0  0  0  0  0
   -3.8164   -0.7373   -1.8435 C   0  0  0  0  0  0  0  0  0  0  0  0
   -4.4499    1.0501   -0.3669 C   0  0  0  0  0  0  0  0  0  0  0  0
   -5.0817   -0.7704   -2.3687 C   0  0  0  0  0  0  0  0  0  0  0  0
   -5.7168    1.0066   -0.8874 C   0  0  0  0  0  0  0  0  0  0  0  0
   -6.0582    0.0986   -1.8615 C   0  0  0  0  0  0  0  0  0  0  0  0
   -7.3018   -0.0656   -2.4324 N   0  0  0  0  0  0  0  0  0  0  0  0
   -8.3666    0.5333   -2.0054 C   0  0  0  0  0  0  0  0  0  0  0  0
   -9.5845    0.3218   -2.7173 C   0  0  0  0  0  0  0  0  0  0  0  0
   -9.7127   -0.4728   -3.8264 C   0  0  0  0  0  0  0  0  0  0  0  0
  -11.0630    1.0519   -2.1527 S   0  0  0  0  0  0  0  0  0  0  0  0
  -11.0434   -0.3740   -4.2571 C   0  0  0  0  0  0  0  0  0  0  0  0
  -11.8397    0.3628   -3.5278 C   0  0  0  0  0  0  0  0  0  0  0  0
  -13.2704    0.6275   -3.7775 C   0  0  0  0  0  0  0  0  0  0  0  0
  -13.7269    0.2704   -4.8455 O   0  0  0  0  0  0  0  0  0  0  0  0
  -14.0037    1.2681   -2.8355 N   0  0  0  0  0  0  0  0  0  0  0  0
  -15.4148    1.5677   -2.8628 C   0  0  0  0  0  0  0  0  0  0  0  0
  -16.1834    0.9022   -1.7340 C   0  0  0  0  0  0  0  0  0  0  0  0
  -17.6920    1.1439   -1.7499 C   0  0  0  0  0  0  0  0  0  0  0  0
  -18.4238    0.4096   -0.6275 C   0  0  0  0  0  0  0  0  0  0  0  0
  -19.9254    0.5730   -0.6321 C   0  0  0  0  0  0  0  0  0  0  0  0
  -20.6129   -0.2237    0.4757 C   0  0  0  0  0  0  0  0  0  0  0  0
  -22.1382   -0.1356    0.4806 C   0  0  0  0  0  0  0  0  0  0  0  0
  2  1  1  0
  3  2  2  0
  4  1  1  0
  5  4  2  0
  5  3  1  0
  6  1  2  0
  7  6  1  0
  8  6  1  0
  9  8  1  0
 10  9  2  0
 11  9  1  0
 12 10  1  0
 13 11  2  0
 14 13  1  0
 14 12  2  0
 15 14  1  0
 16 15  2  0
 17 16  1  0
 18 17  1  0
 19 17  2  0
 20 18  2  0
 21 20  1  0
 21 19  1  0
 22 21  2  0
 23 22  1  0
 24 22  1  0
 25 24  1  0
 26 25  1  0
 27 26  1  0
 28 27  1  0
 29 28  1  0
 30 29  1  0
 31 30  1  0
M  CHG  4   4   1   7  -1  19   1  23  -1
M  END
>  <SMILES>  (9) 
CCCCCCCNC([O-])=C1C=CC(C=Nc2ccc(OC([O-])=C3C=CC=[S+]3)cc2)=[S+]1

>  <scaffold>  (9) 
thiophene

$$$$

     RDKit          3D

 22 24  0  0  0  0  0  0  0  0999 V2000
   -0.0000    0.0000    0.0000 C   0  0  0  0  0  0  0  0  0  0  0  0
    0.0000   -0.0000    1.3704 C   0  0  0  0  0  0  0  0  0  0  0  0
    1.2972    0.0000    1.9234 C   0  0  0  0  0  0  0  0  0  0  0  0
    1.6065    0.0000   -0.6499 S   0  0  0  0  0  0  0  0  0  0  0  0
    2.2879    0.0671    0.9206 C   0  0  0  0  0  0  0  0  0  0  0  0
   -1.1263    0.0000   -0.9018 C   0  0  0  0  0  0  0  0  0  0  0  0
   -2.3285    0.0591   -0.3501 N   0  0  0  0  0  0  0  0  0  0  0  0
   -0.9943   -0.0547   -2.2966 C   0  0  0  0  0  0  0  0  0  0  0  0
   -3.3592    0.1077   -1.1188 N   0  0  0  0  0  0  0  0  0  0  0  0
   -2.0984   -0.0027   -3.1199 C   0  0  0  0  0  0  0  0  0  0  0  0
   -3.2987    0.1027   -2.4265 C   0  0  0  0  0  0  0  0  0  0  0  0
   -4.6872    0.2296   -3.3882 Cl  0  0  0  0  0  0  0  0  0  0  0  0
   -2.1019   -0.0993   -4.4712 O   0  0  0  0  0  0  0  0  0  0  0  0
   -1.0031    0.4192   -5.1385 C   0  0  0  0  0  0  0  0  0  0  0  0
   -0.2551    1.2496   -4.6980 O   0  0  0  0  0  0  0  0  0  0  0  0
   -1.0477   -0.1444   -6.3696 N   0  0  0  0  0  0  0  0  0  0  0  0
   -0.1624    0.1279   -7.4116 C   0  0  0  0  0  0  0  0  0  0  0  0
    0.9187    1.0080   -7.4062 C   0  0  0  0  0  0  0  0  0  0  0  0
   -0.4610   -0.5434   -8.5870 C   0  0  0  0  0  0  0  0  0  0  0  0
    1.7294    1.2782   -8.4675 C   0  0  0  0  0  0  0  0  0  0  0  0
    0.3588   -0.2672   -9.6599 C   0  0  0  0  0  0  0  0  0  0  0  0
    1.4495    0.6115   -9.6688 C   0  0  0  0  0  0  0  0  0  0  0  0
  2  1  2  0
  3  2  1  0
  4  1  1  0
  5  4  1  0
  5  3  2  0
  6  1  1  0
  7  6  2  0
  8  6  1  0
  9  7  1  0
 10  8  2  0
 11 10  1  0
 11  9  2  0
 12 11  1  0
 13 10  1  0
 14 13  1  0
 15 14  2  0
 16 14  1  0
 17 16  1  0
 18 17  2  0
 19 17  1  0
 20 18  1  0
 21 19  2  0
 22 21  1  0
 22 20  2  0
M  END
>  <SMILES>  (10) 
O=C(Nc1ccccc1)Oc1cc(-c2cccs2)nnc1Cl

>  <scaffold>  (10) 
thiophene

$$$$

     RDKit          3D

 28 30  0  0  0  0  0  0  0  0999 V2000
    0.0000    0.0000   -0.0000 C   0  0  0  0  0  0  0  0  0  0  0  0
    0.0000   -0.0000    1.3625 C   0  0  0  0  0  0  0  0  0  0  0  0
    1.3028    0.0000    1.9434 C   0  0  0  0  0  0  0  0  0  0  0  0
    1.6157   -0.0000   -0.6536 S   0  0  0  0  0  0  0  0  0  0  0  0
    2.3089    0.0683    0.9441 C   0  0  0  0  0  0  0  0  0  0  0  0
    3.6621    0.1532    1.2686 C   0  0  0  0  0  0  0  0  0  0  0  0
    4.0189    0.1427    2.5917 C   0  0  0  0  0  0  0  0  0  0  0  0
    3.0548    0.1089    3.6091 C   0  0  0  0  0  0  0  0  0  0  0  0
    1.7079    0.0847    3.3179 C   0  0  0  0  0  0  0  0  0  0  0  0
   -1.4319   -0.0000    2.2853 Cl  0  0  0  0  0  0  0  0  0  0  0  0
   -1.1590   -0.0000   -0.9280 C   0  0  0  0  0  0  0  0  0  0  0  0
   -2.2165    0.5002   -0.6259 O   0  0  0  0  0  0  0  0  0  0  0  0
   -0.9023   -0.4802   -2.1770 N   0  0  0  0  0  0  0  0  0  0  0  0
   -1.6855   -0.5925   -3.3249 C   0  0  0  0  0  0  0  0  0  0  0  0
   -1.1433   -1.1695   -4.4051 N   0  0  0  0  0  0  0  0  0  0  0  0
   -2.9671   -0.0446   -3.3553 C   0  0  0  0  0  0  0  0  0  0  0  0
   -1.7644   -1.2836   -5.5517 C   0  0  0  0  0  0  0  0  0  0  0  0
   -3.6139   -0.1723   -4.5477 C   0  0  0  0  0  0  0  0  0  0  0  0
   -3.0601   -0.7846   -5.6764 C   0  0  0  0  0  0  0  0  0  0  0  0
   -3.6279   -0.9265   -7.0410 C   0  0  0  0  0  0  0  0  0  0  0  0
   -3.1219   -1.4062   -8.0277 O   0  0  0  0  0  0  0  0  0  0  0  0
   -4.8689   -0.4511   -6.9562 O   0  0  0  0  0  0  0  0  0  0  0  0
   -5.5458   -0.5842   -8.2047 C   0  0  0  0  0  0  0  0  0  0  0  0
   -5.2302    0.5901   -9.1586 C   0  0  0  0  0  0  0  0  0  0  0  0
   -5.7040    0.4032  -10.4649 O   0  0  0  0  0  0  0  0  0  0  0  0
   -4.9390   -0.5140  -11.2447 C   0  0  0  0  0  0  0  0  0  0  0  0
   -5.3135   -0.2742  -12.6973 C   0  0  0  0  0  0  0  0  0  0  0  0
   -4.5587   -1.2729  -13.5732 C   0  0  0  0  0  0  0  0  0  0  0  0
  2  1  1  0
  3  2  2  0
  4  1  1  0
  5  4  2  0
  5  3  1  0
  6  5  1  0
  7  6  2  0
  8  7  1  0
  9  8  2  0
  9  3  1  0
 10  2  1  0
 11  1  2  0
 12 11  1  0
 13 11  1  0
 14 13  1  0
 15 14  2  0
 16 14  1  0
 17 15  1  0
 18 16  2  0
 19 17  2  0
 19 18  1  0
 20 19  1  0
 21 20  2  0
 22 20  1  0
 23 22  1  0
 24 23  1  0
 25 24  1  0
 26 25  1  0
 27 26  1  0
 28 27  1  0
M  CHG  2   4   1  12  -1
M  END
>  <SMILES>  (11) 
CCCOCCOC(=O)c1ccc(NC([O-])=C2[S+]=c3ccccc3=C2Cl)nc1

>  <scaffold>  (11) 
thiophene

$$$$

     RDKit          3D

 14 14  0  0  0  0  0  0  0  0999 V2000
    0.0000    0.0000   -0.0000 C   0  0  0  0  0  0  0  0  0  0  0  0
    0.0000   -0.0000    1.3625 C   0  0  0  0  0  0  0  0  0  0  0  0
    1.3136   -0.0000    1.8972 C   0  0  0  0  0  0  0  0  0  0  0  0
    1.6065    0.0000   -0.6499 S   0  0  0  0  0  0  0  0  0  0  0  0
    2.3037    0.0687    0.9570 C   0  0  0  0  0  0  0  0  0  0  0  0
    1.5850   -0.0540    3.2314 N   0  0  0  0  0  0  0  0  0  0  0  0
   -1.0396   -0.0000   -0.8323 O   0  0  0  0  0  0  0  0  0  0  0  0
    3.7122    0.1540    1.2159 C   0  0  0  0  0  0  0  0  0  0  0  0
    4.2325    0.2473    2.3100 O   0  0  0  0  0  0  0  0  0  0  0  0
   -2.3480    0.1289   -0.3005 C   0  0  0  0  0  0  0  0  0  0  0  0
    4.4074    0.1189    0.0537 O   0  0  0  0  0  0  0  0  0  0  0  0
   -2.6643    1.5705    0.0946 C   0  0  0  0  0  0  0  0  0  0  0  0
   -2.6509    2.5017   -1.1165 C   0  0  0  0  0  0  0  0  0  0  0  0
   -2.9166    3.9273   -0.6640 C   0  0  0  0  0  0  0  0  0  0  0  0
  2  1  1  0
  3  2  2  0
  4  1  2  0
  5  4  1  0
  5  3  1  0
  6  3  1  0
  7  1  1  0
  8  5  2  0
  9  8  1  0
 10  7  1  0
 11  8  1  0
 12 10  1  0
 13 12  1  0
 14 13  1  0
M  CHG  2   4   1   9  -1
M  END
>  <SMILES>  (12) 
CCCCOC1=[S+]C(=C([O-])O)C(N)=C1

>  <scaffold>  (12) 
thiophene

$$$$

     RDKit          3D

 25 27  0  0  0  0  0  0  0  0999 V2000
   -0.0000    0.0000    0.0000 C   0  0  0  0  0  0  0  0  0  0  0  0
   -0.0000    0.0000    1.3625 C   0  0  0  0  0  0  0  0  0  0  0  0
    1.6051   -0.0000    2.0158 S   0  0  0  0  0  0  0  0  0  0  0  0
    1.3148   -0.0000   -0.5319 C   0  0  0  0  0  0  0  0  0  0  0  0
    2.3291   -0.0498    0.3765 C   0  0  0  0  0  0  0  0  0  0  0  0
   -1.1181   -0.0549   -0.8040 N   0  0  0  0  0  0  0  0  0  0  0  0
   -2.3823   -0.3716   -0.4066 C   0  0  0  0  0  0  0  0  0  0  0  0
   -2.7014   -0.5990    0.7510 O   0  0  0  0  0  0  0  0  0  0  0  0
    3.7492   -0.1212    0.1860 C   0  0  0  0  0  0  0  0  0  0  0  0
    4.5671   -0.2120    1.1753 N   0  0  0  0  0  0  0  0  0  0  0  0
    4.4097   -0.0757   -1.4155 S   0  0  0  0  0  0  0  0  0  0  0  0
    5.8421   -0.3174    0.7296 C   0  0  0  0  0  0  0  0  0  0  0  0
    5.9720   -0.2696   -0.6910 C   0  0  0  0  0  0  0  0  0  0  0  0
   -3.3868   -0.4097   -1.4993 C   0  0  0  0  0  0  0  0  0  0  0  0
   -4.4766   -1.2703   -1.3765 C   0  0  0  0  0  0  0  0  0  0  0  0
   -3.2550    0.3913   -2.6327 C   0  0  0  0  0  0  0  0  0  0  0  0
   -5.4596   -1.3039   -2.3420 C   0  0  0  0  0  0  0  0  0  0  0  0
   -4.2724    0.3063   -3.5468 C   0  0  0  0  0  0  0  0  0  0  0  0
   -5.4126   -0.4947   -3.4665 C   0  0  0  0  0  0  0  0  0  0  0  0
   -6.3786   -0.4586   -4.4157 F   0  0  0  0  0  0  0  0  0  0  0  0
   -4.2044    1.1844   -4.7528 C   0  0  0  0  0  0  0  0  0  0  0  0
   -5.2080    2.3389   -4.6070 C   0  0  0  0  0  0  0  0  0  0  0  0
   -4.8727    3.2661   -3.4399 C   0  0  0  0  0  0  0  0  0  0  0  0
   -5.8665    4.4246   -3.3722 C   0  0  0  0  0  0  0  0  0  0  0  0
   -5.6070    5.3529   -2.1867 C   0  0  0  0  0  0  0  0  0  0  0  0
  2  1  2  0
  3  2  1  0
  4  1  1  0
  5  4  2  0
  5  3  1  0
  6  1  1  0
  7  6  1  0
  8  7  2  0
  9  5  1  0
 10  9  2  0
 11  9  1  0
 12 10  1  0
 13 11  1  0
 13 12  2  0
 14  7  1  0
 15 14  2  0
 16 14  1  0
 17 15  1  0
 18 16  2  0
 19 17  2  0
 19 18  1  0
 20 19  1  0
 21 18  1  0
 22 21  1  0
 23 22  1  0
 24 23  1  0
 25 24  1  0
M  END
>  <SMILES>  (13) 
CCCCCc1cc(C(=O)Nc2csc(-c3nccs3)c2)ccc1F

>  <scaffold>  (13) 
thiophene

$$$$

     RDKit          3D

 20 21  0  0  0  0  0  0  0  0999 V2000
   -0.0000    0.0000    0.0000 C   0  0  0  0  0  0  0  0  0  0  0  0
   -0.0000   -0.0000    1.3625 C   0  0  0  0  0  0  0  0  0  0  0  0
    1.6156    0.0000    1.9894 S   0  0  0  0  0  0  0  0  0  0  0  0
    1.3073    0.0000   -0.5288 C   0  0  0  0  0  0  0  0  0  0  0  0
    2.3216   -0.0498    0.3796 C   0  0  0  0  0  0  0  0  0  0  0  0
   -1.1976    0.0588    2.2237 C   0  0  0  0  0  0  0  0  0  0  0  0
   -2.3237    0.0588    1.8256 O   0  0  0  0  0  0  0  0  0  0  0  0
    3.6938   -0.1188    0.1955 N   0  0  0  0  0  0  0  0  0  0  0  0
   -0.8607    0.0954    3.5194 O   0  0  0  0  0  0  0  0  0  0  0  0
   -1.8769    0.0981    4.5087 C   0  0  0  0  0  0  0  0  0  0  0  0
    4.6254   -0.1108    1.2005 C   0  0  0  0  0  0  0  0  0  0  0  0
    4.2198   -0.0377    2.3435 O   0  0  0  0  0  0  0  0  0  0  0  0
   -2.1431   -1.2695    5.0693 C   0  0  0  0  0  0  0  0  0  0  0  0
   -1.6420   -2.4286    4.5171 C   0  0  0  0  0  0  0  0  0  0  0  0
   -2.9422   -1.3855    6.2057 C   0  0  0  0  0  0  0  0  0  0  0  0
   -1.9557   -3.6728    5.0414 C   0  0  0  0  0  0  0  0  0  0  0  0
   -3.2560   -2.6298    6.7298 C   0  0  0  0  0  0  0  0  0  0  0  0
   -2.7917   -3.8024    6.1495 C   0  0  0  0  0  0  0  0  0  0  0  0
    5.9187   -0.1323    0.8245 N   0  0  0  0  0  0  0  0  0  0  0  0
    7.1040   -0.0722    1.6739 C   0  0  0  0  0  0  0  0  0  0  0  0
  2  1  1  0
  3  2  1  0
  4  1  2  0
  5  4  1  0
  5  3  2  0
  6  2  2  0
  7  6  1  0
  8  5  1  0
  9  6  1  0
 10  9  1  0
 11  8  1  0
 12 11  2  0
 13 10  1  0
 14 13  2  0
 15 13  1  0
 16 14  1  0
 17 15  2  0
 18 16  2  0
 18 17  1  0
 19 11  1  0
 20 19  1  0
M  CHG  2   3   1   7  -1
M  END
>  <SMILES>  (14) 
CNC(=O)NC1=[S+]C(=C([O-])OCc2ccccc2)C=C1

>  <scaffold>  (14) 
thiophene

$$$$

     RDKit          3D

 26 28  0  0  0  0  0  0  0  0999 V2000
    0.0000    0.0000   -0.0000 C   0  0  0  0  0  0  0  0  0  0  0  0
    0.0000   -0.0000    1.3548 C   0  0  0  0  0  0  0  0  0  0  0  0
    1.5868   -0.0000    2.0006 S   0  0  0  0  0  0  0  0  0  0  0  0
    1.3073    0.0000   -0.5288 C   0  0  0  0  0  0  0  0  0  0  0  0
    2.3216    0.0498    0.3796 C   0  0  0  0  0  0  0  0  0  0  0  0
    3.7998    0.1241    0.1813 C   0  0  0  0  0  0  0  0  0  0  0  0
    4.1083    0.6929   -1.0808 O   0  0  0  0  0  0  0  0  0  0  0  0
    3.8004    1.9992   -1.1960 C   0  0  0  0  0  0  0  0  0  0  0  0
    3.3494    2.6922   -0.3151 O   0  0  0  0  0  0  0  0  0  0  0  0
    4.1089    2.4411   -2.5344 C   0  0  0  0  0  0  0  0  0  0  0  0
    3.9573    3.7659   -2.9678 N   0  0  0  0  0  0  0  0  0  0  0  0
    4.5766    1.7442   -3.6277 C   0  0  0  0  0  0  0  0  0  0  0  0
    4.2975    3.7724   -4.2953 C   0  0  0  0  0  0  0  0  0  0  0  0
    4.6729    2.5637   -4.7023 N   0  0  0  0  0  0  0  0  0  0  0  0
    4.2719    4.6814   -5.0908 O   0  0  0  0  0  0  0  0  0  0  0  0
    5.0505    2.2889   -6.0587 C   0  0  0  0  0  0  0  0  0  0  0  0
    3.6210    4.9423   -2.2033 C   0  0  0  0  0  0  0  0  0  0  0  0
    4.8055    5.4758   -1.3991 C   0  0  0  0  0  0  0  0  0  0  0  0
    4.4083    6.7643   -0.6438 C   0  0  0  0  0  0  0  0  0  0  0  0
    5.6172    7.2765    0.0855 C   0  0  0  0  0  0  0  0  0  0  0  0
    6.0315    6.7597    1.3031 C   0  0  0  0  0  0  0  0  0  0  0  0
    6.3638    8.2696   -0.5111 C   0  0  0  0  0  0  0  0  0  0  0  0
    7.1693    7.2262    1.9079 C   0  0  0  0  0  0  0  0  0  0  0  0
    7.5155    8.7389    0.1012 C   0  0  0  0  0  0  0  0  0  0  0  0
    7.9545    8.2276    1.3383 C   0  0  0  0  0  0  0  0  0  0  0  0
    9.0145    8.6374    2.0470 O   0  0  0  0  0  0  0  0  0  0  0  0
  2  1  2  0
  3  2  1  0
  4  1  1  0
  5  4  2  0
  5  3  1  0
  6  5  1  0
  7  6  1  0
  8  7  1  0
  9  8  2  0
 10  8  1  0
 11 10  1  0
 12 10  2  0
 13 11  1  0
 14 13  1  0
 14 12  1  0
 15 13  2  0
 16 14  1  0
 17 11  1  0
 18 17  1  0
 19 18  1  0
 20 19  1  0
 21 20  2  0
 22 20  1  0
 23 21  1  0
 24 22  2  0
 25 24  1  0
 25 23  2  0
 26 25  1  0
M  END
>  <SMILES>  (15) 
Cn1cc(C(=O)OCc2cccs2)n(CCCc2ccc(O)cc2)c1=O

>  <scaffold>  (15) 
thiophene

$$$$

     RDKit          3D

 24 26  0  0  0  0  0  0  0  0999 V2000
    0.0000   -0.0000   -0.0000 C   0  0  0  0  0  0  0  0  0  0  0  0
    0.0000   -0.0000    1.3625 C   0  0  0  0  0  0  0  0  0  0  0  0
    1.5868   -0.0000    2.0084 S   0  0  0  0  0  0  0  0  0  0  0  0
    1.2998   -0.0000   -0.5258 C   0  0  0  0  0  0  0  0  0  0  0  0
    2.3258   -0.0504    0.3930 C   0  0  0  0  0  0  0  0  0  0  0  0
    3.7423   -0.1192    0.1272 C   0  0  0  0  0  0  0  0  0  0  0  0
    4.1555   -0.1388   -1.0227 O   0  0  0  0  0  0  0  0  0  0  0  0
    4.6234   -0.2175    1.1928 N   0  0  0  0  0  0  0  0  0  0  0  0
    5.9744   -0.3421    1.0667 C   0  0  0  0  0  0  0  0  0  0  0  0
    6.8224   -0.4823    2.0242 N   0  0  0  0  0  0  0  0  0  0  0  0
    6.6537   -0.3821   -0.5379 S   0  0  0  0  0  0  0  0  0  0  0  0
    8.1091   -0.6387    1.6301 C   0  0  0  0  0  0  0  0  0  0  0  0
    8.1437   -0.6013    0.3395 C   0  0  0  0  0  0  0  0  0  0  0  0
    9.3241   -0.7858   -0.4840 C   0  0  0  0  0  0  0  0  0  0  0  0
   10.3949   -0.9916    0.0202 O   0  0  0  0  0  0  0  0  0  0  0  0
    9.2308   -0.8735    2.5741 C   0  0  0  0  0  0  0  0  0  0  0  0
    9.1280   -0.7655   -1.8087 O   0  0  0  0  0  0  0  0  0  0  0  0
   10.1599   -0.9863   -2.7927 C   0  0  0  0  0  0  0  0  0  0  0  0
   10.1706   -2.4413   -3.1983 C   0  0  0  0  0  0  0  0  0  0  0  0
    9.5479   -2.8708   -4.3410 C   0  0  0  0  0  0  0  0  0  0  0  0
   10.7750   -3.3728   -2.3554 C   0  0  0  0  0  0  0  0  0  0  0  0
    9.5424   -4.2307   -4.6480 C   0  0  0  0  0  0  0  0  0  0  0  0
   10.7659   -4.7169   -2.6598 C   0  0  0  0  0  0  0  0  0  0  0  0
   10.0990   -5.1351   -3.7944 C   0  0  0  0  0  0  0  0  0  0  0  0
  2  1  1  0
  3  2  2  0
  4  1  2  0
  5  4  1  0
  5  3  1  0
  6  5  2  0
  7  6  1  0
  8  6  1  0
  9  8  1  0
 10  9  1  0
 11  9  2  0
 12 10  2  0
 13 12  1  0
 13 11  1  0
 14 13  2  0
 15 14  1  0
 16 12  1  0
 17 14  1  0
 18 17  1  0
 19 18  1  0
 20 19  2  0
 21 19  1  0
 22 20  1  0
 23 21  2  0
 24 23  1  0
 24 22  2  0
M  CHG  4   3   1   7  -1  11   1  15  -1
M  END
>  <SMILES>  (16) 
CC1=NC(NC([O-])=C2C=CC=[S+]2)=[S+]C1=C([O-])OCc1ccccc1

>  <scaffold>  (16) 
thiophene

$$$$

     RDKit          3D

 31 33  0  0  0  0  0  0  0  0999 V2000
   -0.0000   -0.0000   -0.0000 C   0  0  0  0  0  0  0  0  0  0  0  0
    0.0000   -0.0000    1.3625 C   0  0  0  0  0  0  0  0  0  0  0  0
    1.5868    0.0000    2.0084 S   0  0  0  0  0  0  0  0  0  0  0  0
    1.3073   -0.0000   -0.5288 C   0  0  0  0  0  0  0  0  0  0  0  0
    2.3274   -0.0501    0.3848 C   0  0  0  0  0  0  0  0  0  0  0  0
    3.7869   -0.0034    0.1157 C   0  0  0  0  0  0  0  0  0  0  0  0
    4.1383    0.2523   -1.0265 O   0  0  0  0  0  0  0  0  0  0  0  0
    4.6342   -0.2223    1.1702 N   0  0  0  0  0  0  0  0  0  0  0  0
    5.9544   -0.1957    1.2673 N   0  0  0  0  0  0  0  0  0  0  0  0
    6.5863   -0.3808    2.3642 C   0  0  0  0  0  0  0  0  0  0  0  0
    8.0015   -0.3113    2.5286 C   0  0  0  0  0  0  0  0  0  0  0  0
    8.9454   -0.0377    1.5622 C   0  0  0  0  0  0  0  0  0  0  0  0
    8.6238   -0.4674    3.7218 O   0  0  0  0  0  0  0  0  0  0  0  0
   10.1152   -0.0560    2.3204 C   0  0  0  0  0  0  0  0  0  0  0  0
    9.9571   -0.3049    3.6197 C   0  0  0  0  0  0  0  0  0  0  0  0
   10.7956   -0.4598    4.6426 F   0  0  0  0  0  0  0  0  0  0  0  0
   11.4989    0.2472    1.7717 C   0  0  1  0  0  0  0  0  0  0  0  0
   11.8115   -0.3107    0.5239 O   0  0  0  0  0  0  0  0  0  0  0  0
   11.6956    1.7532    1.7373 C   0  0  0  0  0  0  0  0  0  0  0  0
   11.9386    2.4635    2.9025 C   0  0  0  0  0  0  0  0  0  0  0  0
   11.6393    2.4858    0.5525 C   0  0  0  0  0  0  0  0  0  0  0  0
   12.0743    3.8348    2.9269 C   0  0  0  0  0  0  0  0  0  0  0  0
   11.7735    3.8415    0.5767 C   0  0  0  0  0  0  0  0  0  0  0  0
   11.9685    4.5566    1.7575 C   0  0  0  0  0  0  0  0  0  0  0  0
   12.1823    6.2806    1.6158 S   0  0  0  0  0  0  0  0  0  0  0  0
   12.5611    6.8814    3.2965 C   0  0  0  0  0  0  0  0  0  0  0  0
   14.0063    6.6075    3.7098 C   0  0  2  0  0  0  0  0  0  0  0  0
   14.2262    7.0006    5.1697 C   0  0  0  0  0  0  0  0  0  0  0  0
   14.9849    7.3461    2.8129 C   0  0  0  0  0  0  0  0  0  0  0  0
   16.4253    7.0802    3.3059 C   0  0  0  0  0  0  0  0  0  0  0  0
   16.6658    7.5964    4.5872 O   0  0  0  0  0  0  0  0  0  0  0  0
  2  1  1  0
  3  2  2  0
  4  1  2  0
  5  4  1  0
  5  3  1  0
  6  5  2  0
  7  6  1  0
  8  6  1  0
  9  8  1  0
 10  9  2  0
 11 10  1  0
 12 11  2  0
 13 11  1  0
 14 12  1  0
 15 14  2  0
 15 13  1  0
 16 15  1  0
 17 14  1  0
 17 18  1  6
 19 17  1  0
 20 19  2  0
 21 19  1  0
 22 20  1  0
 23 21  2  0
 24 23  1  0
 24 22  2  0
 25 24  1  0
 26 25  1  0
 27 26  1  0
 27 28  1  1
 29 27  1  0
 30 29  1  0
 31 30  1  0
M  CHG  2   3   1   7  -1
M  END
>  <SMILES>  (17) 
CC(CCO)CSc1ccc(C(O)c2cc(C=NNC([O-])=C3C=CC=[S+]3)oc2F)cc1

>  <scaffold>  (17) 
thiophene

$$$$

     RDKit          3D

 26 29  0  0  0  0  0  0  0  0999 V2000
    0.0000    0.0000    0.0000 S   0  0  0  0  0  0  0  0  0  0  0  0
    0.0000    0.0000    1.7429 C   0  0  0  0  0  0  0  0  0  0  0  0
    1.2660    0.0000    2.3074 C   0  0  0  0  0  0  0  0  0  0  0  0
    1.7414   -0.0000    0.0726 C   0  0  0  0  0  0  0  0  0  0  0  0
    2.3023   -0.0552    1.3653 C   0  0  0  0  0  0  0  0  0  0  0  0
    2.4449    0.0503   -1.0302 N   0  0  0  0  0  0  0  0  0  0  0  0
    3.6985   -0.1160    1.5539 C   0  0  0  0  0  0  0  0  0  0  0  0
    3.7409   -0.0062   -0.8551 C   0  0  0  0  0  0  0  0  0  0  0  0
    4.3977   -0.0600    0.3858 C   0  0  0  0  0  0  0  0  0  0  0  0
    1.4658   -0.0535    3.6463 N   0  0  0  0  0  0  0  0  0  0  0  0
   -1.1904   -0.0000    2.3568 O   0  0  0  0  0  0  0  0  0  0  0  0
    5.7680   -0.0517    0.3709 O   0  0  0  0  0  0  0  0  0  0  0  0
    6.5162   -0.1010    1.5747 C   0  0  0  0  0  0  0  0  0  0  0  0
    8.0232   -0.0215    1.3359 C   0  0  0  0  0  0  0  0  0  0  0  0
    8.8773   -0.1257    2.5985 C   0  0  0  0  0  0  0  0  0  0  0  0
   10.3754   -0.0956    2.3000 C   0  0  0  0  0  0  0  0  0  0  0  0
   11.2846   -0.2536    3.5397 C   0  0  0  0  0  0  0  0  0  0  0  0
   12.6994   -0.2830    3.3038 N   0  0  0  0  0  0  0  0  0  0  0  0
   13.4690    0.8256    3.0239 C   0  0  0  0  0  0  0  0  0  0  0  0
   13.4867   -1.3930    3.0860 C   0  0  0  0  0  0  0  0  0  0  0  0
   13.2055    2.1785    3.0214 C   0  0  0  0  0  0  0  0  0  0  0  0
   14.7300    0.3192    2.7128 C   0  0  0  0  0  0  0  0  0  0  0  0
   14.7544   -1.0277    2.7453 O   0  0  0  0  0  0  0  0  0  0  0  0
   14.2718    2.9888    2.7310 C   0  0  0  0  0  0  0  0  0  0  0  0
   15.8032    1.1348    2.4253 C   0  0  0  0  0  0  0  0  0  0  0  0
   15.5346    2.4649    2.4581 C   0  0  0  0  0  0  0  0  0  0  0  0
  2  1  2  0
  3  2  1  0
  4  1  1  0
  5  4  2  0
  5  3  1  0
  6  4  1  0
  7  5  1  0
  8  6  2  0
  9  8  1  0
  9  7  2  0
 10  3  2  0
 11  2  1  0
 12  9  1  0
 13 12  1  0
 14 13  1  0
 15 14  1  0
 16 15  1  0
 17 16  1  0
 18 17  1  0
 19 18  1  0
 20 18  1  0
 21 19  2  0
 22 19  1  0
 23 22  1  0
 23 20  1  0
 24 21  1  0
 25 22  2  0
 26 25  1  0
 26 24  2  0
M  CHG  2   1   1  20  -1
M  END
>  <SMILES>  (18) 
N=C1C(O)=[S+]c2ncc(OCCCCCN3[CH-]Oc4ccccc43)cc21

>  <scaffold>  (18) 
thiophene

$$$$

     RDKit          3D

 18 19  0  0  0  0  0  0  0  0999 V2000
   -0.0000   -0.0000   -0.0000 C   0  0  0  0  0  0  0  0  0  0  0  0
   -0.0000   -0.0000    1.3548 C   0  0  0  0  0  0  0  0  0  0  0  0
    1.5960    0.0000    2.0043 S   0  0  0  0  0  0  0  0  0  0  0  0
    1.3073    0.0000   -0.5288 C   0  0  0  0  0  0  0  0  0  0  0  0
    2.3216    0.0498    0.3796 C   0  0  0  0  0  0  0  0  0  0  0  0
    3.7727    0.0034    0.1120 C   0  0  0  0  0  0  0  0  0  0  0  0
    4.1853   -0.0897   -1.0271 O   0  0  0  0  0  0  0  0  0  0  0  0
    4.5999    0.1265    1.2175 N   0  0  0  0  0  0  0  0  0  0  0  0
    5.9374    0.0630    1.2465 N   0  0  0  0  0  0  0  0  0  0  0  0
    6.6652    0.2280    2.2857 C   0  0  0  0  0  0  0  0  0  0  0  0
    8.0765    0.1205    2.3764 C   0  0  0  0  0  0  0  0  0  0  0  0
    8.8573   -0.2465    1.3318 C   0  0  0  0  0  0  0  0  0  0  0  0
    9.0155    0.4166    3.8025 S   0  0  0  0  0  0  0  0  0  0  0  0
   10.1574   -0.2854    1.8335 C   0  0  0  0  0  0  0  0  0  0  0  0
   10.5450    0.0134    3.0946 C   0  0  0  0  0  0  0  0  0  0  0  0
   11.8716   -0.0276    3.7410 C   0  0  0  0  0  0  0  0  0  0  0  0
   12.9067   -0.4282    3.2295 O   0  0  0  0  0  0  0  0  0  0  0  0
   11.7470    0.4190    5.0139 N   0  0  0  0  0  0  0  0  0  0  0  0
  2  1  1  0
  3  2  2  0
  4  1  2  0
  5  4  1  0
  5  3  1  0
  6  5  2  0
  7  6  1  0
  8  6  1  0
  9  8  1  0
 10  9  2  0
 11 10  1  0
 12 11  1  0
 13 11  2  0
 14 12  2  0
 15 14  1  0
 15 13  1  0
 16 15  2  0
 17 16  1  0
 18 16  1  0
M  CHG  4   3   1   7  -1  13   1  17  -1
M  END
>  <SMILES>  (19) 
NC([O-])=C1C=CC(C=NNC([O-])=C2C=CC=[S+]2)=[S+]1

>  <scaffold>  (19) 
thiophene

$$$$

     RDKit          3D

 32 34  0  0  0  0  0  0  0  0999 V2000
   -0.0000    0.0000    0.0000 C   0  0  0  0  0  0  0  0  0  0  0  0
    0.0000   -0.0000    1.3548 C   0  0  0  0  0  0  0  0  0  0  0  0
    1.5960   -0.0000    2.0043 S   0  0  0  0  0  0  0  0  0  0  0  0
    1.3073    0.0000   -0.5288 C   0  0  0  0  0  0  0  0  0  0  0  0
    2.3216    0.0498    0.3796 C   0  0  0  0  0  0  0  0  0  0  0  0
    3.6627    0.1172    0.1997 O   0  0  0  0  0  0  0  0  0  0  0  0
    4.5646    0.1054    1.2837 C   0  0  0  0  0  0  0  0  0  0  0  0
    4.6570   -1.2629    1.9372 C   0  0  0  0  0  0  0  0  0  0  0  0
    5.0004   -1.3863    3.0745 O   0  0  0  0  0  0  0  0  0  0  0  0
    4.3844   -2.2415    1.0644 O   0  0  0  0  0  0  0  0  0  0  0  0
    4.4524   -3.5706    1.3912 C   0  0  0  0  0  0  0  0  0  0  0  0
    3.7609   -4.3496    0.6107 N   0  0  0  0  0  0  0  0  0  0  0  0
    5.2557   -4.1209    2.3777 C   0  0  0  0  0  0  0  0  0  0  0  0
    3.7919   -5.6599    0.7985 N   0  0  0  0  0  0  0  0  0  0  0  0
    5.2752   -5.4845    2.5772 C   0  0  0  0  0  0  0  0  0  0  0  0
    4.4859   -6.2228    1.7345 C   0  0  0  0  0  0  0  0  0  0  0  0
    4.5242   -7.5408    1.8556 O   0  0  0  0  0  0  0  0  0  0  0  0
    3.7601   -8.2879    0.8985 C   0  0  0  0  0  0  0  0  0  0  0  0
    2.2671   -8.3016    1.2229 C   0  0  0  0  0  0  0  0  0  0  0  0
    1.4012   -9.0392    0.2028 C   0  0  0  0  0  0  0  0  0  0  0  0
   -0.0782   -8.9773    0.5423 C   0  0  0  0  0  0  0  0  0  0  0  0
   -1.1768   -9.7903   -0.6823 S   0  0  0  0  0  0  0  0  0  0  0  0
   -2.7559   -9.0077   -0.3492 C   0  0  0  0  0  0  0  0  0  0  0  0
   -3.2894   -8.1054   -1.2440 C   0  0  0  0  0  0  0  0  0  0  0  0
   -3.4053   -9.2776    0.8453 C   0  0  0  0  0  0  0  0  0  0  0  0
   -4.4813   -7.4927   -0.9221 C   0  0  0  0  0  0  0  0  0  0  0  0
   -4.5959   -8.6619    1.1662 C   0  0  0  0  0  0  0  0  0  0  0  0
   -5.1662   -7.8056    0.2323 C   0  0  0  0  0  0  0  0  0  0  0  0
   -6.3028   -7.1466    0.5295 F   0  0  0  0  0  0  0  0  0  0  0  0
   -5.3189   -8.8815    2.4841 C   0  0  0  0  0  0  0  0  0  0  0  0
   -5.5053  -10.3754    2.7447 C   0  0  0  0  0  0  0  0  0  0  0  0
   -4.4822   -8.2787    3.6115 C   0  0  0  0  0  0  0  0  0  0  0  0
  2  1  2  0
  3  2  1  0
  4  1  1  0
  5  4  2  0
  5  3  1  0
  6  5  1  0
  7  6  1  0
  8  7  2  0
  9  8  1  0
 10  8  1  0
 11 10  1  0
 12 11  2  0
 13 11  1  0
 14 12  1  0
 15 13  2  0
 16 15  1  0
 16 14  2  0
 17 16  1  0
 18 17  1  0
 19 18  1  0
 20 19  1  0
 21 20  1  0
 22 21  1  0
 23 22  2  0
 24 23  1  0
 25 23  1  0
 26 24  2  0
 27 25  1  0
 28 27  2  0
 28 26  1  0
 29 28  1  0
 30 27  1  0
 31 30  1  0
 32 30  1  0
M  CHG  2   9  -1  22   1
M  END
>  <SMILES>  (20) 
CC(C)C1=C(F)C=CC(=[S+]CCCCOc2ccc(OC([O-])=COc3cccs3)nn2)C1

>  <scaffold>  (20) 
thiophene

$$$$

     RDKit          3D

 15 16  0  0  0  0  0  0  0  0999 V2000
    0.0000    0.0000   -0.0000 C   0  0  0  0  0  0  0  0  0  0  0  0
   -0.0000   -0.0000    1.3548 C   0  0  0  0  0  0  0  0  0  0  0  0
    1.6143   -0.0000    2.0118 S   0  0  0  0  0  0  0  0  0  0  0  0
    1.3148    0.0000   -0.5319 C   0  0  0  0  0  0  0  0  0  0  0  0
    2.3350   -0.0501    0.3817 C   0  0  0  0  0  0  0  0  0  0  0  0
   -1.2697   -0.0000   -0.8182 C   0  0  0  0  0  0  0  0  0  0  0  0
   -1.4059    0.0691    2.3657 Cl  0  0  0  0  0  0  0  0  0  0  0  0
   -1.1065    0.6089   -2.0796 O   0  0  0  0  0  0  0  0  0  0  0  0
    3.6993   -0.1187    0.1987 N   0  0  0  0  0  0  0  0  0  0  0  0
   -0.8878    1.9615   -2.1028 C   0  0  0  0  0  0  0  0  0  0  0  0
   -0.7823    2.5260   -3.3732 C   0  0  0  0  0  0  0  0  0  0  0  0
   -0.8133    2.7858   -0.9810 C   0  0  0  0  0  0  0  0  0  0  0  0
   -0.6155    3.8854   -3.5267 C   0  0  0  0  0  0  0  0  0  0  0  0
   -0.6442    4.1212   -1.1339 C   0  0  0  0  0  0  0  0  0  0  0  0
   -0.5446    4.7551   -2.4292 C   0  0  0  0  0  0  0  0  0  0  0  0
  2  1  2  0
  3  2  1  0
  4  1  1  0
  5  4  2  0
  5  3  1  0
  6  1  1  0
  7  2  1  0
  8  6  1  0
  9  5  1  0
 10  8  1  0
 11 10  2  0
 12 10  1  0
 13 11  1  0
 14 12  2  0
 15 14  1  0
 15 13  2  0
M  END
>  <SMILES>  (21) 
Nc1cc(COc2ccccc2)c(Cl)s1

>  <scaffold>  (21) 
thiophene

$$$$

     RDKit          3D

 20 21  0  0  0  0  0  0  0  0999 V2000
   -0.0000    0.0000    0.0000 C   0  0  0  0  0  0  0  0  0  0  0  0
    0.0000   -0.0000    1.3625 C   0  0  0  0  0  0  0  0  0  0  0  0
    1.2972    0.0000    1.9156 C   0  0  0  0  0  0  0  0  0  0  0  0
    1.6065   -0.0000   -0.6499 S   0  0  0  0  0  0  0  0  0  0  0  0
    2.2879    0.0671    0.9206 C   0  0  0  0  0  0  0  0  0  0  0  0
   -1.2045   -0.0592   -0.8661 C   0  0  0  0  0  0  0  0  0  0  0  0
   -1.2678   -1.3474   -1.5312 N   0  0  0  0  0  0  0  0  0  0  0  0
   -1.1980   -1.5065   -2.8826 C   0  0  0  0  0  0  0  0  0  0  0  0
   -1.1860   -0.5743   -3.6836 O   0  0  0  0  0  0  0  0  0  0  0  0
   -1.1184   -2.9080   -3.3115 C   0  0  0  0  0  0  0  0  0  0  0  0
   -0.9913   -3.2544   -4.5911 C   0  0  0  0  0  0  0  0  0  0  0  0
   -0.8397   -4.5588   -5.2086 C   0  0  0  0  0  0  0  0  0  0  0  0
   -0.8750   -5.7064   -4.4179 C   0  0  0  0  0  0  0  0  0  0  0  0
   -0.6659   -4.7141   -6.5751 C   0  0  0  0  0  0  0  0  0  0  0  0
   -0.6798   -6.9055   -5.0349 C   0  0  0  0  0  0  0  0  0  0  0  0
   -0.4687   -5.9268   -7.1995 C   0  0  0  0  0  0  0  0  0  0  0  0
   -0.4467   -7.0762   -6.3987 C   0  0  0  0  0  0  0  0  0  0  0  0
   -0.3151   -8.3624   -6.9201 O   0  0  0  0  0  0  0  0  0  0  0  0
    0.1211   -8.5799   -8.2348 C   0  0  0  0  0  0  0  0  0  0  0  0
    1.5862   -8.2043   -8.4512 C   0  0  0  0  0  0  0  0  0  0  0  0
  2  1  2  0
  3  2  1  0
  4  1  1  0
  5  4  1  0
  5  3  2  0
  6  1  1  0
  7  6  1  0
  8  7  1  0
  9  8  2  0
 10  8  1  0
 11 10  2  0
 12 11  1  0
 13 12  2  0
 14 12  1  0
 15 13  1  0
 16 14  2  0
 17 16  1  0
 17 15  2  0
 18 17  1  0
 19 18  1  0
 20 19  1  0
M  END
>  <SMILES>  (22) 
CCOc1ccc(C=CC(=O)NCc2cccs2)cc1

>  <scaffold>  (22) 
thiophene

$$$$

     RDKit          3D

 20 22  0  0  0  0  0  0  0  0999 V2000
   -0.0000   -0.0000   -0.0000 C   0  0  0  0  0  0  0  0  0  0  0  0
    0.0000   -0.0000    1.3704 C   0  0  0  0  0  0  0  0  0  0  0  0
    1.2898    0.0000    1.9202 C   0  0  0  0  0  0  0  0  0  0  0  0
    1.6065    0.0000   -0.6499 S   0  0  0  0  0  0  0  0  0  0  0  0
    2.2879    0.0671    0.9206 C   0  0  0  0  0  0  0  0  0  0  0  0
   -1.1705    0.0575   -0.8417 C   0  0  0  0  0  0  0  0  0  0  0  0
   -2.3548    0.1741   -0.2962 N   0  0  0  0  0  0  0  0  0  0  0  0
   -0.9644   -0.0087   -2.2433 C   0  0  0  0  0  0  0  0  0  0  0  0
   -3.4389    0.2770   -1.0225 N   0  0  0  0  0  0  0  0  0  0  0  0
   -2.0932    0.0981   -2.9990 C   0  0  0  0  0  0  0  0  0  0  0  0
   -3.3783    0.2670   -2.3452 C   0  0  0  0  0  0  0  0  0  0  0  0
   -4.4672    0.4192   -3.1366 O   0  0  0  0  0  0  0  0  0  0  0  0
   -5.7474    0.5998   -2.6823 C   0  0  0  0  0  0  0  0  0  0  0  0
   -6.6222    0.7774   -3.7531 C   0  0  0  0  0  0  0  0  0  0  0  0
   -6.1868    0.6632   -1.3775 C   0  0  0  0  0  0  0  0  0  0  0  0
   -7.9595    1.0298   -3.4894 C   0  0  0  0  0  0  0  0  0  0  0  0
   -7.5337    0.9086   -1.1147 C   0  0  0  0  0  0  0  0  0  0  0  0
   -8.4949    1.1190   -2.2053 C   0  0  0  0  0  0  0  0  0  0  0  0
   -8.8242    1.1536   -4.6171 N   0  0  0  0  0  0  0  0  0  0  0  0
   -8.3883    1.0399   -5.7382 O   0  0  0  0  0  0  0  0  0  0  0  0
  2  1  2  0
  3  2  1  0
  4  1  1  0
  5  4  1  0
  5  3  2  0
  6  1  1  0
  7  6  2  0
  8  6  1  0
  9  7  1  0
 10  8  2  0
 11 10  1  0
 11  9  2  0
 12 11  1  0
 13 12  1  0
 14 13  2  0
 15 13  1  0
 16 14  1  0
 17 15  2  0
 18 17  1  0
 18 16  2  0
 19 16  1  0
 20 19  2  0
M  END
>  <SMILES>  (23) 
O=Nc1cccc(Oc2ccc(-c3cccs3)nn2)c1

>  <scaffold>  (23) 
thiophene

$$$$

     RDKit          3D

 25 27  0  0  0  0  0  0  0  0999 V2000
   -0.0000    0.0000   -0.0000 C   0  0  0  0  0  0  0  0  0  0  0  0
    0.0000    0.0000    1.3704 C   0  0  0  0  0  0  0  0  0  0  0  0
    1.2898   -0.0000    1.9202 C   0  0  0  0  0  0  0  0  0  0  0  0
    1.6065   -0.0000   -0.6499 S   0  0  0  0  0  0  0  0  0  0  0  0
    2.2879    0.0671    0.9206 C   0  0  0  0  0  0  0  0  0  0  0  0
   -1.1908   -0.0585   -0.8562 C   0  0  0  0  0  0  0  0  0  0  0  0
   -2.2997   -0.3949   -0.4465 O   0  0  0  0  0  0  0  0  0  0  0  0
   -0.9562    0.2805   -2.1549 N   0  0  0  0  0  0  0  0  0  0  0  0
   -2.0275    0.4139   -3.0495 N   0  0  0  0  0  0  0  0  0  0  0  0
   -2.0361   -0.3391   -4.2228 C   0  0  0  0  0  0  0  0  0  0  0  0
   -3.2319   -0.5565   -4.9057 C   0  0  0  0  0  0  0  0  0  0  0  0
   -0.8798   -0.8846   -4.7785 C   0  0  0  0  0  0  0  0  0  0  0  0
   -3.2735   -1.1820   -6.1331 C   0  0  0  0  0  0  0  0  0  0  0  0
   -0.9239   -1.5107   -6.0055 C   0  0  0  0  0  0  0  0  0  0  0  0
   -2.1003   -1.6253   -6.7419 C   0  0  0  0  0  0  0  0  0  0  0  0
   -2.0877   -2.2044   -7.9752 F   0  0  0  0  0  0  0  0  0  0  0  0
    0.1632   -2.0972   -6.5618 O   0  0  0  0  0  0  0  0  0  0  0  0
    1.3872   -2.0848   -5.8945 C   0  0  0  0  0  0  0  0  0  0  0  0
    1.5827   -2.8956   -4.7973 C   0  0  0  0  0  0  0  0  0  0  0  0
    2.4440   -1.3554   -6.4373 C   0  0  0  0  0  0  0  0  0  0  0  0
    2.8320   -2.8855   -4.1966 C   0  0  0  0  0  0  0  0  0  0  0  0
    3.6929   -1.3537   -5.8360 C   0  0  0  0  0  0  0  0  0  0  0  0
    3.8900   -2.1332   -4.7049 C   0  0  0  0  0  0  0  0  0  0  0  0
    3.0570   -3.6338   -3.0804 O   0  0  0  0  0  0  0  0  0  0  0  0
    2.0291   -4.3401   -2.4222 C   0  0  0  0  0  0  0  0  0  0  0  0
  2  1  1  0
  3  2  2  0
  4  1  1  0
  5  4  2  0
  5  3  1  0
  6  1  2  0
  7  6  1  0
  8  6  1  0
  9  8  1  0
 10  9  1  0
 11 10  2  0
 12 10  1  0
 13 11  1  0
 14 12  2  0
 15 14  1  0
 15 13  2  0
 16 15  1  0
 17 14  1  0
 18 17  1  0
 19 18  2  0
 20 18  1  0
 21 19  1  0
 22 20  2  0
 23 22  1  0
 23 21  2  0
 24 21  1  0
 25 24  1  0
M  CHG  2   4   1   7  -1
M  END
>  <SMILES>  (24) 
COc1cccc(Oc2cc(NNC([O-])=C3C=CC=[S+]3)ccc2F)c1

>  <scaffold>  (24) 
thiophene

$$$$

     RDKit          3D

 28 29  0  0  0  0  0  0  0  0999 V2000
    0.0000    0.0000    0.0000 C   0  0  0  0  0  0  0  0  0  0  0  0
    0.0000    0.0000    1.3704 C   0  0  0  0  0  0  0  0  0  0  0  0
    1.3298    0.0000    1.8863 C   0  0  0  0  0  0  0  0  0  0  0  0
    1.6065    0.0000   -0.6499 S   0  0  0  0  0  0  0  0  0  0  0  0
    2.2997   -0.0683    0.9478 C   0  0  0  0  0  0  0  0  0  0  0  0
   -1.4319   -0.0000    2.2931 Cl  0  0  0  0  0  0  0  0  0  0  0  0
    1.6238    0.0585    3.3318 C   0  0  0  0  0  0  0  0  0  0  0  0
   -1.1054   -0.0543   -0.7948 N   0  0  0  0  0  0  0  0  0  0  0  0
    2.5501    0.7749    3.7053 O   0  0  0  0  0  0  0  0  0  0  0  0
    0.8880   -0.7067    4.1484 N   0  0  0  0  0  0  0  0  0  0  0  0
   -0.9784    0.0058   -2.1659 C   0  0  0  0  0  0  0  0  0  0  0  0
    0.0825    0.2115   -2.7061 O   0  0  0  0  0  0  0  0  0  0  0  0
    0.8854   -0.6917    5.5995 C   0  0  0  0  0  0  0  0  0  0  0  0
   -2.1832   -0.1164   -2.7904 N   0  0  0  0  0  0  0  0  0  0  0  0
   -0.3618   -0.0262    6.1314 C   0  0  0  0  0  0  0  0  0  0  0  0
   -1.3245   -0.7379    6.8302 C   0  0  0  0  0  0  0  0  0  0  0  0
   -0.5696    1.3380    5.8833 C   0  0  0  0  0  0  0  0  0  0  0  0
   -2.4693   -0.0980    7.2537 C   0  0  0  0  0  0  0  0  0  0  0  0
   -1.7221    1.9800    6.3085 C   0  0  0  0  0  0  0  0  0  0  0  0
   -2.7179    1.2369    7.0177 C   0  0  0  0  0  0  0  0  0  0  0  0
   -4.2473    1.9937    7.5357 S   0  0  0  0  0  6  0  0  0  0  0  0
   -4.9541    1.0108    8.3053 O   0  0  0  0  0  0  0  0  0  0  0  0
   -4.0639    3.3216    8.0466 O   0  0  0  0  0  0  0  0  0  0  0  0
   -5.1196    2.2252    6.1592 N   0  0  0  0  0  0  0  0  0  0  0  0
   -5.5891    1.0497    5.4496 C   0  0  0  0  0  0  0  0  0  0  0  0
   -5.6598    1.4015    3.9644 C   0  0  0  0  0  0  0  0  0  0  0  0
   -6.0984    0.1761    3.1641 C   0  0  0  0  0  0  0  0  0  0  0  0
   -6.1003    0.5573    1.7115 C   0  0  0  0  0  0  0  0  0  0  0  0
  2  1  2  0
  3  2  1  0
  4  1  1  0
  5  4  2  0
  5  3  1  0
  6  2  1  0
  7  3  2  0
  8  1  1  0
  9  7  1  0
 10  7  1  0
 11  8  1  0
 12 11  2  0
 13 10  1  0
 14 11  1  0
 15 13  1  0
 16 15  2  0
 17 15  1  0
 18 16  1  0
 19 17  2  0
 20 19  1  0
 20 18  2  0
 21 20  1  0
 22 21  2  0
 23 21  2  0
 24 21  1  0
 25 24  1  0
 26 25  1  0
 27 26  1  0
 28 27  1  0
M  CHG  2   4   1   9  -1
M  END
>  <SMILES>  (25) 
CCCCNS(=O)(=O)c1ccc(CNC([O-])=C2C=[S+]C(NC(N)=O)=C2Cl)cc1

>  <scaffold>  (25) 
thiophene

$$$$

     RDKit          3D

 24 26  0  0  0  0  0  0  0  0999 V2000
    0.0000    0.0000   -0.0000 C   0  0  0  0  0  0  0  0  0  0  0  0
    0.0000   -0.0000    1.3625 C   0  0  0  0  0  0  0  0  0  0  0  0
    1.5960   -0.0000    2.0121 S   0  0  0  0  0  0  0  0  0  0  0  0
    1.3073   -0.0000   -0.5288 C   0  0  0  0  0  0  0  0  0  0  0  0
    2.2695    0.0504    0.4345 C   0  0  0  0  0  0  0  0  0  0  0  0
    4.0450    0.1394    0.1965 S   0  0  0  0  0  6  0  0  0  0  0  0
    4.1941    0.2545   -1.2340 O   0  0  0  0  0  0  0  0  0  0  0  0
    4.6354    1.1105    1.0585 O   0  0  0  0  0  0  0  0  0  0  0  0
    4.7547   -1.2977    0.5272 N   0  0  0  0  0  0  0  0  0  0  0  0
    4.5570   -2.3535   -0.4360 C   0  0  0  0  0  0  0  0  0  0  0  0
    5.8042   -3.2161   -0.5276 C   0  0  0  0  0  0  0  0  0  0  0  0
    6.1705   -3.7323    0.7781 N   0  0  0  0  0  0  0  0  0  0  0  0
    4.6564   -1.7438    1.9045 C   0  0  0  0  0  0  0  0  0  0  0  0
    6.4124   -2.6272    1.6870 C   0  0  0  0  0  0  0  0  0  0  0  0
    7.2755   -4.6715    0.7251 C   0  0  0  0  0  0  0  0  0  0  0  0
    6.8797   -5.9986    0.1006 C   0  0  0  0  0  0  0  0  0  0  0  0
    7.6305   -6.7881   -0.4054 O   0  0  0  0  0  0  0  0  0  0  0  0
    5.5589   -6.1801    0.2282 O   0  0  0  0  0  0  0  0  0  0  0  0
    5.0120   -7.3743   -0.2390 C   0  0  0  0  0  0  0  0  0  0  0  0
    5.3233   -7.9560   -1.4401 C   0  0  0  0  0  0  0  0  0  0  0  0
    4.0694   -7.9322    0.6234 C   0  0  0  0  0  0  0  0  0  0  0  0
    4.7124   -9.1268   -1.8868 C   0  0  0  0  0  0  0  0  0  0  0  0
    3.4617   -9.0956    0.1776 C   0  0  0  0  0  0  0  0  0  0  0  0
    3.7546   -9.7472   -1.1139 C   0  0  0  0  0  0  0  0  0  0  0  0
  2  1  2  0
  3  2  1  0
  4  1  1  0
  5  4  2  0
  5  3  1  0
  6  5  1  0
  7  6  2  0
  8  6  2  0
  9  6  1  0
 10  9  1  0
 11 10  1  0
 12 11  1  0
 13  9  1  0
 14 13  1  0
 14 12  1  0
 15 12  1  0
 16 15  1  0
 17 16  2  0
 18 16  1  0
 19 18  1  0
 20 19  2  0
 21 19  1  0
 22 20  1  0
 23 21  2  0
 24 23  1  0
 24 22  2  0
M  END
>  <SMILES>  (26) 
O=C(CN1CCN(S(=O)(=O)c2cccs2)CC1)Oc1ccccc1

>  <scaffold>  (26) 
thiophene

$$$$

     RDKit          3D

 21 22  0  0  0  0  0  0  0  0999 V2000
   -0.0000    0.0000   -0.0000 C   0  0  0  0  0  0  0  0  0  0  0  0
    0.0000    0.0000    1.3548 C   0  0  0  0  0  0  0  0  0  0  0  0
    1.5868   -0.0000    2.0006 S   0  0  0  0  0  0  0  0  0  0  0  0
    1.3073    0.0000   -0.5288 C   0  0  0  0  0  0  0  0  0  0  0  0
    2.3216   -0.0498    0.3796 C   0  0  0  0  0  0  0  0  0  0  0  0
    3.7172   -0.1223    0.2659 N   0  0  0  0  0  0  0  0  0  0  0  0
    4.3370   -0.0937   -0.9297 C   0  0  0  0  0  0  0  0  0  0  0  0
    3.8935   -0.0088   -2.0578 O   0  0  0  0  0  0  0  0  0  0  0  0
    5.7143   -0.2352   -0.7670 N   0  0  0  0  0  0  0  0  0  0  0  0
    6.4655   -0.3831    0.2948 N   0  0  0  0  0  0  0  0  0  0  0  0
    7.7292   -0.5558    0.3950 C   0  0  0  0  0  0  0  0  0  0  0  0
    8.4357   -0.7628    1.6359 C   0  0  0  0  0  0  0  0  0  0  0  0
    9.7922   -1.0031    1.7893 C   0  0  0  0  0  0  0  0  0  0  0  0
    7.5895   -0.7556    2.7338 C   0  0  0  0  0  0  0  0  0  0  0  0
   10.5085   -1.2577    2.9579 C   0  0  0  0  0  0  0  0  0  0  0  0
    8.3040   -1.0068    3.8947 C   0  0  0  0  0  0  0  0  0  0  0  0
    9.6857   -1.1936    4.0716 C   0  0  0  0  0  0  0  0  0  0  0  0
   11.8353   -1.5311    2.9750 O   0  0  0  0  0  0  0  0  0  0  0  0
   12.6877   -1.7522    4.0972 C   0  0  0  0  0  0  0  0  0  0  0  0
   12.9521   -0.4244    4.8053 C   0  0  0  0  0  0  0  0  0  0  0  0
   13.6211    0.4397    4.0442 F   0  0  0  0  0  0  0  0  0  0  0  0
  2  1  2  0
  3  2  1  0
  4  1  1  0
  5  4  2  0
  5  3  1  0
  6  5  1  0
  7  6  1  0
  8  7  2  0
  9  7  1  0
 10  9  1  0
 11 10  2  0
 12 11  1  0
 13 12  2  0
 14 12  1  0
 15 13  1  0
 16 14  2  0
 17 16  1  0
 17 15  2  0
 18 15  1  0
 19 18  1  0
 20 19  1  0
 21 20  1  0
M  END
>  <SMILES>  (27) 
O=C(NN=Cc1cccc(OCCF)c1)Nc1cccs1

>  <scaffold>  (27) 
thiophene

$$$$

     RDKit          3D

 21 22  0  0  0  0  0  0  0  0999 V2000
    0.0000    0.0000    0.0000 C   0  0  0  0  0  0  0  0  0  0  0  0
   -0.0000    0.0000    1.3625 C   0  0  0  0  0  0  0  0  0  0  0  0
    1.3222    0.0000    1.8755 C   0  0  0  0  0  0  0  0  0  0  0  0
    1.6065    0.0000   -0.6499 S   0  0  0  0  0  0  0  0  0  0  0  0
    2.2958   -0.0679    0.9387 C   0  0  0  0  0  0  0  0  0  0  0  0
   -1.2254   -0.0602    2.2437 C   0  0  0  0  0  0  0  0  0  0  0  0
   -1.0759    0.0000   -0.8614 N   0  0  0  0  0  0  0  0  0  0  0  0
    1.5399    0.0583    3.3345 C   0  0  0  0  0  0  0  0  0  0  0  0
    0.8481    0.6523    4.1377 O   0  0  0  0  0  0  0  0  0  0  0  0
    2.6986   -0.5572    3.7564 N   0  0  0  0  0  0  0  0  0  0  0  0
    3.5583   -1.2785    3.0394 N   0  0  0  0  0  0  0  0  0  0  0  0
    4.5775   -1.8444    3.5485 C   0  0  0  0  0  0  0  0  0  0  0  0
    3.6541   -0.0413    1.1181 N   0  0  0  0  0  0  0  0  0  0  0  0
    5.5696   -2.5957    2.8022 C   0  0  0  0  0  0  0  0  0  0  0  0
    6.6182   -3.0985    3.4354 N   0  0  0  0  0  0  0  0  0  0  0  0
    5.4178   -2.7968    1.4229 C   0  0  0  0  0  0  0  0  0  0  0  0
    7.5989   -3.7474    2.8604 C   0  0  0  0  0  0  0  0  0  0  0  0
    6.4686   -3.4910    0.8065 C   0  0  0  0  0  0  0  0  0  0  0  0
    7.5408   -3.9256    1.4790 C   0  0  0  0  0  0  0  0  0  0  0  0
    8.6394   -4.5668    0.9906 O   0  0  0  0  0  0  0  0  0  0  0  0
    8.6491   -4.7244   -0.4026 C   0  0  0  0  0  0  0  0  0  0  0  0
  2  1  2  0
  3  2  1  0
  4  1  1  0
  5  4  2  0
  5  3  1  0
  6  2  1  0
  7  1  1  0
  8  3  2  0
  9  8  1  0
 10  8  1  0
 11 10  1  0
 12 11  2  0
 13  5  1  0
 14 12  1  0
 15 14  2  0
 16 14  1  0
 17 15  1  0
 18 16  2  0
 19 18  1  0
 19 17  2  0
 20 19  1  0
 21 20  1  0
M  CHG  2   4   1   9  -1
M  END
>  <SMILES>  (28) 
COc1ccc(C=NNC([O-])=C2C(N)=[S+]C(N)=C2C)nc1

>  <scaffold>  (28) 
thiophene

$$$$

     RDKit          3D

 27 28  0  0  0  0  0  0  0  0999 V2000
    0.0000   -0.0000    0.0000 C   0  0  0  0  0  0  0  0  0  0  0  0
    0.0000    0.0000    1.3704 C   0  0  0  0  0  0  0  0  0  0  0  0
    1.2972    0.0000    1.9234 C   0  0  0  0  0  0  0  0  0  0  0  0
    1.6157    0.0000   -0.6536 S   0  0  0  0  0  0  0  0  0  0  0  0
    2.2933    0.0667    0.9079 C   0  0  0  0  0  0  0  0  0  0  0  0
    1.5016   -0.0548    3.2933 N   0  0  0  0  0  0  0  0  0  0  0  0
   -1.1908   -0.0585   -0.8562 C   0  0  0  0  0  0  0  0  0  0  0  0
   -1.1451   -0.0999   -2.0628 O   0  0  0  0  0  0  0  0  0  0  0  0
    2.6728   -0.2917    3.9479 C   0  0  0  0  0  0  0  0  0  0  0  0
    3.7482   -0.4971    3.4207 O   0  0  0  0  0  0  0  0  0  0  0  0
    2.5359   -0.2207    5.4247 C   0  0  0  0  0  0  0  0  0  0  0  0
    1.6139    0.5889    6.0524 C   0  0  0  0  0  0  0  0  0  0  0  0
    3.4049   -1.0052    6.1816 C   0  0  0  0  0  0  0  0  0  0  0  0
    1.5589    0.6560    7.3813 N   0  0  0  0  0  0  0  0  0  0  0  0
    3.3478   -0.9346    7.5568 C   0  0  0  0  0  0  0  0  0  0  0  0
    2.3679   -0.0352    8.1437 C   0  0  0  0  0  0  0  0  0  0  0  0
   -2.3441   -0.0585   -0.1904 O   0  0  0  0  0  0  0  0  0  0  0  0
    4.0890   -1.6717    8.3819 O   0  0  0  0  0  0  0  0  0  0  0  0
   -3.5679   -0.0571   -0.9071 C   0  0  0  0  0  0  0  0  0  0  0  0
    5.1415   -2.5482    7.9284 C   0  0  2  0  0  0  0  0  0  0  0  0
    5.4139   -3.5361    9.0616 C   0  0  0  0  0  0  0  0  0  0  0  0
    6.3815   -1.7511    7.5266 C   0  0  0  0  0  0  0  0  0  0  0  0
    6.5628   -4.4557    8.6508 C   0  0  0  0  0  0  0  0  0  0  0  0
    6.8305   -5.3842    9.8343 C   0  0  0  0  0  0  0  0  0  0  0  0
    7.9391   -6.3639    9.4529 C   0  0  0  0  0  0  0  0  0  0  0  0
    8.1298   -7.3005   10.6449 C   0  0  0  0  0  0  0  0  0  0  0  0
    9.1945   -8.3379   10.2920 C   0  0  0  0  0  0  0  0  0  0  0  0
  2  1  1  0
  3  2  2  0
  4  1  1  0
  5  4  2  0
  5  3  1  0
  6  3  1  0
  7  1  2  0
  8  7  1  0
  9  6  1  0
 10  9  2  0
 11  9  1  0
 12 11  2  0
 13 11  1  0
 14 12  1  0
 15 13  2  0
 16 15  1  0
 16 14  2  0
 17  7  1  0
 18 15  1  0
 19 17  1  0
 20 18  1  0
 21 20  1  0
 20 22  1  1
 23 21  1  0
 24 23  1  0
 25 24  1  0
 26 25  1  0
 27 26  1  0
M  CHG  2   4   1   8  -1
M  END
>  <SMILES>  (29) 
CCCCCCC(C)Oc1cncc(C(=O)NC2=CC(=C([O-])OC)[S+]=C2)c1

>  <scaffold>  (29) 
thiophene

$$$$

     RDKit          3D

 38 39  0  0  0  0  0  0  0  0999 V2000
   -0.0000    0.0000    0.0000 C   0  0  0  0  0  0  0  0  0  0  0  0
   -0.0000    0.0000    1.3625 C   0  0  0  0  0  0  0  0  0  0  0  0
    1.6051    0.0000    2.0158 S   0  0  0  0  0  0  0  0  0  0  0  0
    1.2998    0.0000   -0.5258 C   0  0  0  0  0  0  0  0  0  0  0  0
    2.3200    0.0501    0.3878 C   0  0  0  0  0  0  0  0  0  0  0  0
   -1.4573    0.0000    2.5294 Br  0  0  0  0  0  0  0  0  0  0  0  0
    3.7565    0.1223    0.1951 C   0  0  0  0  0  0  0  0  0  0  0  0
    4.1446    0.0846   -1.0544 N   0  0  0  0  0  0  0  0  0  0  0  0
    4.6527    0.2218    1.2793 C   0  0  0  0  0  0  0  0  0  0  0  0
    5.4299    0.1942   -1.2770 N   0  0  0  0  0  0  0  0  0  0  0  0
    5.9830    0.3353    1.0490 C   0  0  0  0  0  0  0  0  0  0  0  0
    6.4488    0.4085   -0.3619 C   0  0  0  0  0  0  0  0  0  0  0  0
    7.6126    0.5415   -0.6849 O   0  0  0  0  0  0  0  0  0  0  0  0
    5.7228    0.1941   -2.6983 C   0  0  0  0  0  0  0  0  0  0  0  0
    6.9643    0.3861    2.0267 N   0  0  0  0  0  0  0  0  0  0  0  0
    5.8367    1.6307   -3.2058 C   0  0  0  0  0  0  0  0  0  0  0  0
    4.5216    2.3993   -3.0868 C   0  0  0  0  0  0  0  0  0  0  0  0
    4.7027    3.8422   -3.5554 C   0  0  0  0  0  0  0  0  0  0  0  0
    3.4273    4.6700   -3.4049 C   0  0  0  0  0  0  0  0  0  0  0  0
    3.6762    6.1148   -3.8349 C   0  0  0  0  0  0  0  0  0  0  0  0
    2.4147    6.9731   -3.7548 C   0  0  0  0  0  0  0  0  0  0  0  0
    2.7038    8.3908   -4.2458 C   0  0  0  0  0  0  0  0  0  0  0  0
    1.4855    9.3060   -4.1345 C   0  0  0  0  0  0  0  0  0  0  0  0
    1.8416   10.7217   -4.5856 C   0  0  0  0  0  0  0  0  0  0  0  0
    0.6405   11.6652   -4.5449 C   0  0  0  0  0  0  0  0  0  0  0  0
    1.0359   13.0497   -5.0558 C   0  0  0  0  0  0  0  0  0  0  0  0
   -0.1057   14.0363   -4.9849 C   0  0  0  0  0  0  0  0  0  0  0  0
   -1.2345   13.8932   -4.5996 O   0  0  0  0  0  0  0  0  0  0  0  0
    0.2988   15.2449   -5.3966 O   0  0  0  0  0  0  0  0  0  0  0  0
   -0.6785   16.2815   -5.3242 C   0  0  0  0  0  0  0  0  0  0  0  0
   -1.6824   16.2256   -6.4745 C   0  0  0  0  0  0  0  0  0  0  0  0
   -2.7368   17.3205   -6.3209 C   0  0  0  0  0  0  0  0  0  0  0  0
   -3.7981   17.2731   -7.4191 C   0  0  0  0  0  0  0  0  0  0  0  0
   -4.7949   18.4187   -7.2515 C   0  0  0  0  0  0  0  0  0  0  0  0
   -5.7992   18.3587   -8.4014 C   0  0  0  0  0  0  0  0  0  0  0  0
   -6.7884   19.5195   -8.3098 C   0  0  0  0  0  0  0  0  0  0  0  0
   -7.8003   19.3830   -9.4464 C   0  0  0  0  0  0  0  0  0  0  0  0
   -8.7942   20.5312   -9.2780 C   0  0  0  0  0  0  0  0  0  0  0  0
  2  1  2  0
  3  2  1  0
  4  1  1  0
  5  4  2  0
  5  3  1  0
  6  2  1  0
  7  5  1  0
  8  7  2  0
  9  7  1  0
 10  8  1  0
 11  9  2  0
 12 10  1  0
 12 11  1  0
 13 12  2  0
 14 10  1  0
 15 11  1  0
 16 14  1  0
 17 16  1  0
 18 17  1  0
 19 18  1  0
 20 19  1  0
 21 20  1  0
 22 21  1  0
 23 22  1  0
 24 23  1  0
 25 24  1  0
 26 25  1  0
 27 26  1  0
 28 27  2  0
 29 27  1  0
 30 29  1  0
 31 30  1  0
 32 31  1  0
 33 32  1  0
 34 33  1  0
 35 34  1  0
 36 35  1  0
 37 36  1  0
 38 37  1  0
M  END
>  <SMILES>  (30) 
CCCCCCCCCOC(=O)CCCCCCCCCCCCn1nc(-c2ccc(Br)s2)cc(N)c1=O

>  <scaffold>  (30) 
thiophene

$$$$

     RDKit          3D

 20 21  0  0  0  0  0  0  0  0999 V2000
    0.0000   -0.0000    0.0000 C   0  0  0  0  0  0  0  0  0  0  0  0
    0.0000   -0.0000    1.3704 C   0  0  0  0  0  0  0  0  0  0  0  0
    1.2898    0.0000    1.9202 C   0  0  0  0  0  0  0  0  0  0  0  0
    1.6065    0.0000   -0.6499 S   0  0  0  0  0  0  0  0  0  0  0  0
    2.2879   -0.0671    0.9206 C   0  0  0  0  0  0  0  0  0  0  0  0
   -1.1328   -0.0000   -0.9070 C   0  0  0  0  0  0  0  0  0  0  0  0
   -0.9546    0.0477   -2.1010 O   0  0  0  0  0  0  0  0  0  0  0  0
   -2.3770   -0.0611   -0.3360 O   0  0  0  0  0  0  0  0  0  0  0  0
   -3.5133    0.2379   -1.0258 C   0  0  0  0  0  0  0  0  0  0  0  0
   -3.4274    1.1956   -1.9140 N   0  0  0  0  0  0  0  0  0  0  0  0
   -4.6857   -0.4525   -0.7609 C   0  0  0  0  0  0  0  0  0  0  0  0
   -4.5721    1.4857   -2.5295 C   0  0  0  0  0  0  0  0  0  0  0  0
   -5.8342   -0.0776   -1.4567 C   0  0  0  0  0  0  0  0  0  0  0  0
   -5.7533    0.9324   -2.3513 N   0  0  0  0  0  0  0  0  0  0  0  0
   -7.1794   -0.7031   -1.2231 C   0  0  2  0  0  0  0  0  0  0  0  0
   -7.6964   -0.2270    0.1434 C   0  0  0  0  0  0  0  0  0  0  0  0
   -4.3724    2.5079   -3.3717 O   0  0  0  0  0  0  0  0  0  0  0  0
   -7.0798   -2.2338   -1.3143 C   0  0  0  0  0  0  0  0  0  0  0  0
   -6.6757   -2.7070   -2.7097 C   0  0  0  0  0  0  0  0  0  0  0  0
   -6.6157   -4.2254   -2.8678 C   0  0  0  0  0  0  0  0  0  0  0  0
  2  1  1  0
  3  2  2  0
  4  1  1  0
  5  4  2  0
  5  3  1  0
  6  1  2  0
  7  6  1  0
  8  6  1  0
  9  8  1  0
 10  9  2  0
 11  9  1  0
 12 10  1  0
 13 11  2  0
 14 13  1  0
 14 12  2  0
 15 13  1  0
 15 16  1  1
 17 12  1  0
 18 15  1  0
 19 18  1  0
 20 19  1  0
M  CHG  2   4   1   7  -1
M  END
>  <SMILES>  (31) 
CCCC(C)c1cc(OC([O-])=C2C=CC=[S+]2)nc(O)n1

>  <scaffold>  (31) 
thiophene

$$$$

     RDKit          3D

 30 32  0  0  0  0  0  0  0  0999 V2000
    0.0000   -0.0000    0.0000 C   0  0  0  0  0  0  0  0  0  0  0  0
   -0.0000   -0.0000    1.3625 C   0  0  0  0  0  0  0  0  0  0  0  0
    1.5868   -0.0000    2.0084 S   0  0  0  0  0  0  0  0  0  0  0  0
    1.2998    0.0000   -0.5258 C   0  0  0  0  0  0  0  0  0  0  0  0
    2.3200   -0.0501    0.3878 C   0  0  0  0  0  0  0  0  0  0  0  0
    3.7500   -0.0077    0.2005 C   0  0  0  0  0  0  0  0  0  0  0  0
    4.0855    0.0974   -1.0839 N   0  0  0  0  0  0  0  0  0  0  0  0
    4.7046   -0.0135    1.2384 C   0  0  0  0  0  0  0  0  0  0  0  0
    5.3444    0.1945   -1.3676 N   0  0  0  0  0  0  0  0  0  0  0  0
    6.0148    0.0816    0.9403 C   0  0  0  0  0  0  0  0  0  0  0  0
    6.3168    0.1976   -0.4913 C   0  0  0  0  0  0  0  0  0  0  0  0
    8.1635    0.4140   -0.9748 Br  0  0  0  0  0  0  0  0  0  0  0  0
   -1.1453    0.0000   -0.7380 O   0  0  0  0  0  0  0  0  0  0  0  0
   -2.4131    0.0000   -0.0843 C   0  0  0  0  0  0  0  0  0  0  0  0
   -3.5473   -0.0597   -1.0801 C   0  0  0  0  0  0  0  0  0  0  0  0
   -4.8274    0.3415   -0.7310 C   0  0  0  0  0  0  0  0  0  0  0  0
   -3.3653   -0.5481   -2.3560 C   0  0  0  0  0  0  0  0  0  0  0  0
   -5.9087    0.2583   -1.5943 C   0  0  0  0  0  0  0  0  0  0  0  0
   -4.4473   -0.6291   -3.2186 C   0  0  0  0  0  0  0  0  0  0  0  0
   -5.7275   -0.2463   -2.8725 C   0  0  0  0  0  0  0  0  0  0  0  0
   -6.7695   -0.3922   -3.7382 O   0  0  0  0  0  0  0  0  0  0  0  0
   -8.1130    0.0133   -3.4406 C   0  0  0  0  0  0  0  0  0  0  0  0
   -9.0448   -0.6396   -4.4603 C   0  0  0  0  0  0  0  0  0  0  0  0
  -10.4852   -0.2477   -4.2947 C   0  0  0  0  0  0  0  0  0  0  0  0
  -11.4664   -0.9163   -5.2562 C   0  0  0  0  0  0  0  0  0  0  0  0
  -12.9088   -0.4434   -5.0824 C   0  0  0  0  0  0  0  0  0  0  0  0
  -13.9213   -1.0419   -6.0575 C   0  0  0  0  0  0  0  0  0  0  0  0
  -15.3369   -0.4960   -5.8771 C   0  0  0  0  0  0  0  0  0  0  0  0
  -16.3770   -1.0226   -6.8646 C   0  0  0  0  0  0  0  0  0  0  0  0
  -17.7779   -0.3984   -6.6740 C   0  0  0  0  0  0  0  0  0  0  0  0
  2  1  2  0
  3  2  1  0
  4  1  1  0
  5  4  2  0
  5  3  1  0
  6  5  1  0
  7  6  2  0
  8  6  1  0
  9  7  1  0
 10  8  2  0
 11  9  2  0
 11 10  1  0
 12 11  1  0
 13  1  1  0
 14 13  1  0
 15 14  1  0
 16 15  2  0
 17 15  1  0
 18 16  1  0
 19 17  2  0
 20 18  2  0
 20 19  1  0
 21 20  1  0
 22 21  1  0
 23 22  1  0
 24 23  1  0
 25 24  1  0
 26 25  1  0
 27 26  1  0
 28 27  1  0
 29 28  1  0
 30 29  1  0
M  END
>  <SMILES>  (32) 
CCCCCCCCCOc1ccc(COc2csc(-c3ccc(Br)nn3)c2)cc1

>  <scaffold>  (32) 
thiophene

$$$$

     RDKit          3D

 30 32  0  0  0  0  0  0  0  0999 V2000
   -0.0000    0.0000   -0.0000 C   0  0  0  0  0  0  0  0  0  0  0  0
   -0.0000    0.0000    1.3704 C   0  0  0  0  0  0  0  0  0  0  0  0
    1.2898   -0.0000    1.9202 C   0  0  0  0  0  0  0  0  0  0  0  0
    1.6157    0.0000   -0.6536 S   0  0  0  0  0  0  0  0  0  0  0  0
    2.2971    0.0671    0.9169 C   0  0  0  0  0  0  0  0  0  0  0  0
   -1.1840   -0.0582   -0.8514 C   0  0  0  0  0  0  0  0  0  0  0  0
   -2.3231   -0.0582   -0.4486 O   0  0  0  0  0  0  0  0  0  0  0  0
   -0.7824   -0.0911   -2.1206 O   0  0  0  0  0  0  0  0  0  0  0  0
   -1.7263   -0.2043   -3.1404 C   0  0  0  0  0  0  0  0  0  0  0  0
   -2.9399    0.4486   -3.1195 C   0  0  0  0  0  0  0  0  0  0  0  0
   -1.3819   -1.0399   -4.1914 C   0  0  0  0  0  0  0  0  0  0  0  0
   -3.8260    0.3443   -4.1803 C   0  0  0  0  0  0  0  0  0  0  0  0
   -2.2679   -1.1452   -5.2522 C   0  0  0  0  0  0  0  0  0  0  0  0
   -3.4500   -0.3841   -5.2981 C   0  0  0  0  0  0  0  0  0  0  0  0
   -4.2635   -0.4728   -6.3778 O   0  0  0  0  0  0  0  0  0  0  0  0
   -5.6383   -0.2958   -6.3827 C   0  0  0  0  0  0  0  0  0  0  0  0
   -6.2509    0.4245   -7.3853 C   0  0  0  0  0  0  0  0  0  0  0  0
   -6.4010   -0.9008   -5.3959 C   0  0  0  0  0  0  0  0  0  0  0  0
   -7.6178    0.5851   -7.4588 C   0  0  0  0  0  0  0  0  0  0  0  0
   -7.7753   -0.7360   -5.4704 C   0  0  0  0  0  0  0  0  0  0  0  0
   -8.3681    0.0414   -6.4491 C   0  0  0  0  0  0  0  0  0  0  0  0
   -8.6243   -1.2379   -4.5303 O   0  0  0  0  0  0  0  0  0  0  0  0
   -8.1723   -1.9140   -3.3683 C   0  0  0  0  0  0  0  0  0  0  0  0
   -7.6106   -3.3060   -3.6970 C   0  0  0  0  0  0  0  0  0  0  0  0
   -7.0112   -3.9267   -2.4361 C   0  0  0  0  0  0  0  0  0  0  0  0
   -6.3888   -5.2925   -2.7221 C   0  0  0  0  0  0  0  0  0  0  0  0
   -5.8228   -5.9808   -1.4810 C   0  0  0  0  0  0  0  0  0  0  0  0
   -5.2624   -7.3633   -1.8112 C   0  0  0  0  0  0  0  0  0  0  0  0
   -4.7328   -8.1170   -0.5922 C   0  0  0  0  0  0  0  0  0  0  0  0
   -4.2350   -9.5120   -0.9671 C   0  0  0  0  0  0  0  0  0  0  0  0
  2  1  1  0
  3  2  2  0
  4  1  1  0
  5  4  2  0
  5  3  1  0
  6  1  2  0
  7  6  1  0
  8  6  1  0
  9  8  1  0
 10  9  2  0
 11  9  1  0
 12 10  1  0
 13 11  2  0
 14 13  1  0
 14 12  2  0
 15 14  1  0
 16 15  1  0
 17 16  2  0
 18 16  1  0
 19 17  1  0
 20 18  2  0
 21 19  2  0
 21 20  1  0
 22 20  1  0
 23 22  1  0
 24 23  1  0
 25 24  1  0
 26 25  1  0
 27 26  1  0
 28 27  1  0
 29 28  1  0
 30 29  1  0
M  CHG  2   4   1   7  -1
M  END
>  <SMILES>  (33) 
CCCCCCCCOc1cccc(Oc2ccc(OC([O-])=C3C=CC=[S+]3)cc2)c1

>  <scaffold>  (33) 
thiophene

$$$$

     RDKit          3D

 25 27  0  0  0  0  0  0  0  0999 V2000
    0.0000    0.0000   -0.0000 C   0  0  0  0  0  0  0  0  0  0  0  0
    0.0000   -0.0000    1.3548 C   0  0  0  0  0  0  0  0  0  0  0  0
    1.5960    0.0000    2.0043 S   0  0  0  0  0  0  0  0  0  0  0  0
    1.3073    0.0000   -0.5288 C   0  0  0  0  0  0  0  0  0  0  0  0
    2.3274    0.0501    0.3848 C   0  0  0  0  0  0  0  0  0  0  0  0
    3.7869    0.0034    0.1157 C   0  0  0  0  0  0  0  0  0  0  0  0
    4.2208   -0.6753   -0.7847 O   0  0  0  0  0  0  0  0  0  0  0  0
    4.4787    0.7443    1.0145 N   0  0  0  0  0  0  0  0  0  0  0  0
    5.8489    0.9537    1.0103 C   0  0  0  0  0  0  0  0  0  0  0  0
    6.2321    1.8450    1.9225 N   0  0  0  0  0  0  0  0  0  0  0  0
    6.7918    0.3452    0.1697 C   0  0  0  0  0  0  0  0  0  0  0  0
    7.5204    2.0872    2.0450 C   0  0  0  0  0  0  0  0  0  0  0  0
    8.1329    0.5964    0.2976 C   0  0  0  0  0  0  0  0  0  0  0  0
    8.5084    1.4848    1.2963 C   0  0  0  0  0  0  0  0  0  0  0  0
   10.2533    1.8100    1.5540 S   0  0  0  0  0  6  0  0  0  0  0  0
   10.9865    1.4806    0.3657 O   0  0  0  0  0  0  0  0  0  0  0  0
   10.3663    3.1573    2.0578 O   0  0  0  0  0  0  0  0  0  0  0  0
   10.6247    0.6319    2.8544 C   0  0  0  0  0  0  0  0  0  0  0  0
   10.9182   -0.6943    2.5403 C   0  0  0  0  0  0  0  0  0  0  0  0
   10.5319    1.0393    4.1678 C   0  0  0  0  0  0  0  0  0  0  0  0
   11.1624   -1.6510    3.5131 C   0  0  0  0  0  0  0  0  0  0  0  0
   10.7801    0.0809    5.1380 C   0  0  0  0  0  0  0  0  0  0  0  0
   11.0919   -1.1862    4.8171 C   0  0  0  0  0  0  0  0  0  0  0  0
   11.4596   -2.3569    6.1111 S   0  0  0  0  0  0  0  0  0  0  0  0
   10.8425   -3.9478    5.5263 C   0  0  0  0  0  0  0  0  0  0  0  0
  2  1  1  0
  3  2  2  0
  4  1  2  0
  5  4  1  0
  5  3  1  0
  6  5  2  0
  7  6  1  0
  8  6  1  0
  9  8  1  0
 10  9  2  0
 11  9  1  0
 12 10  1  0
 13 11  2  0
 14 13  1  0
 14 12  2  0
 15 14  1  0
 16 15  2  0
 17 15  2  0
 18 15  1  0
 19 18  2  0
 20 18  1  0
 21 19  1  0
 22 20  2  0
 23 22  1  0
 23 21  2  0
 24 23  1  0
 25 24  1  0
M  CHG  2   3   1   7  -1
M  END
>  <SMILES>  (34) 
CSc1ccc(S(=O)(=O)c2ccc(NC([O-])=C3C=CC=[S+]3)nc2)cc1

>  <scaffold>  (34) 
thiophene

$$$$

     RDKit          3D

 23 25  0  0  0  0  0  0  0  0999 V2000
   -0.0000   -0.0000    0.0000 C   0  0  0  0  0  0  0  0  0  0  0  0
    0.0000    0.0000    1.3625 C   0  0  0  0  0  0  0  0  0  0  0  0
    1.2972   -0.0000    1.9156 C   0  0  0  0  0  0  0  0  0  0  0  0
    1.6065    0.0000   -0.6499 S   0  0  0  0  0  0  0  0  0  0  0  0
    2.2879   -0.0671    0.9206 C   0  0  0  0  0  0  0  0  0  0  0  0
   -1.2395    0.0609   -0.8913 C   0  0  2  0  0  0  0  0  0  0  0  0
   -0.9943   -0.7102   -2.1565 C   0  0  0  0  0  0  0  0  0  0  0  0
   -1.2528   -1.9819   -2.2556 N   0  0  0  0  0  0  0  0  0  0  0  0
   -0.4241   -0.2563   -3.3077 N   0  0  0  0  0  0  0  0  0  0  0  0
   -0.8528   -2.3204   -3.5134 O   0  0  0  0  0  0  0  0  0  0  0  0
   -0.3914   -1.3103   -4.0834 C   0  0  0  0  0  0  0  0  0  0  0  0
   -1.5281    1.5118   -1.2732 C   0  0  0  0  0  0  0  0  0  0  0  0
    0.0682   -1.3811   -5.4580 C   0  0  0  0  0  0  0  0  0  0  0  0
    0.0751   -2.5540   -6.0723 N   0  0  0  0  0  0  0  0  0  0  0  0
    0.4748   -0.2036   -6.0660 C   0  0  0  0  0  0  0  0  0  0  0  0
    0.4455   -2.6590   -7.3552 C   0  0  0  0  0  0  0  0  0  0  0  0
    0.8606   -0.3132   -7.4012 C   0  0  0  0  0  0  0  0  0  0  0  0
    0.7692   -1.5077   -8.0559 C   0  0  0  0  0  0  0  0  0  0  0  0
    0.4636   -4.0533   -7.9130 C   0  0  0  0  0  0  0  0  0  0  0  0
    1.3287    0.6978   -8.1307 O   0  0  0  0  0  0  0  0  0  0  0  0
    1.4119    2.0169   -7.5944 C   0  0  0  0  0  0  0  0  0  0  0  0
    0.0402    2.6880   -7.5446 C   0  0  0  0  0  0  0  0  0  0  0  0
    0.1756    4.0730   -6.9140 C   0  0  0  0  0  0  0  0  0  0  0  0
  2  1  2  0
  3  2  1  0
  4  1  1  0
  5  4  1  0
  5  3  2  0
  6  1  1  0
  7  6  1  0
  8  7  2  0
  9  7  1  0
 10  8  1  0
 11 10  1  0
 11  9  2  0
  6 12  1  6
 13 11  1  0
 14 13  2  0
 15 13  1  0
 16 14  1  0
 17 15  2  0
 18 17  1  0
 18 16  2  0
 19 16  1  0
 20 17  1  0
 21 20  1  0
 22 21  1  0
 23 22  1  0
M  END
>  <SMILES>  (35) 
CCCOc1cc(C)nc(-c2nc(C(C)c3cccs3)no2)c1

>  <scaffold>  (35) 
thiophene

$$$$

     RDKit          3D

 27 30  0  0  0  0  0  0  0  0999 V2000
   -0.0000    0.0000   -0.0000 C   0  0  0  0  0  0  0  0  0  0  0  0
    0.0000    0.0000    1.3625 C   0  0  0  0  0  0  0  0  0  0  0  0
    1.5868    0.0000    2.0084 S   0  0  0  0  0  0  0  0  0  0  0  0
    1.3073   -0.0000   -0.5288 C   0  0  0  0  0  0  0  0  0  0  0  0
    2.3274    0.0501    0.3848 C   0  0  0  0  0  0  0  0  0  0  0  0
    3.7575    0.0077    0.1975 C   0  0  0  0  0  0  0  0  0  0  0  0
    4.1479   -0.1554   -1.0571 N   0  0  0  0  0  0  0  0  0  0  0  0
    4.6729    0.1309    1.2952 C   0  0  0  0  0  0  0  0  0  0  0  0
    5.4306   -0.1528   -1.2779 N   0  0  0  0  0  0  0  0  0  0  0  0
    6.0004    0.1338    1.0669 C   0  0  0  0  0  0  0  0  0  0  0  0
    6.3866   -0.0003   -0.3523 C   0  0  0  0  0  0  0  0  0  0  0  0
    7.9726    0.0451   -0.7901 S   0  0  0  0  0  0  0  0  0  0  0  0
   -1.1117   -0.0546   -0.7994 O   0  0  0  0  0  0  0  0  0  0  0  0
   -2.3564   -0.1158   -0.1567 C   0  0  0  0  0  0  0  0  0  0  0  0
   -2.7827    1.1883    0.4543 C   0  0  0  0  0  0  0  0  0  0  0  0
   -3.7285    1.1881    1.3918 N   0  0  0  0  0  0  0  0  0  0  0  0
   -2.2564    2.4272    0.0619 C   0  0  0  0  0  0  0  0  0  0  0  0
   -4.1660    2.3115    1.9207 C   0  0  0  0  0  0  0  0  0  0  0  0
   -2.7144    3.6024    0.6175 C   0  0  0  0  0  0  0  0  0  0  0  0
   -3.6629    3.5413    1.5261 C   0  0  0  0  0  0  0  0  0  0  0  0
   -4.2303    4.7892    2.1182 C   0  0  0  0  0  0  0  0  0  0  0  0
   -5.2041    5.4517    1.1725 C   0  0  0  0  0  0  0  0  0  0  0  0
   -4.8830    6.5742    0.4253 C   0  0  0  0  0  0  0  0  0  0  0  0
   -6.4694    4.9018    0.9723 C   0  0  0  0  0  0  0  0  0  0  0  0
   -5.7940    7.1179   -0.4668 C   0  0  0  0  0  0  0  0  0  0  0  0
   -7.3674    5.4396    0.0879 C   0  0  0  0  0  0  0  0  0  0  0  0
   -7.0615    6.5678   -0.6525 C   0  0  0  0  0  0  0  0  0  0  0  0
  2  1  1  0
  3  2  2  0
  4  1  2  0
  5  4  1  0
  5  3  1  0
  6  5  2  0
  7  6  1  0
  8  6  1  0
  9  7  2  0
 10  8  2  0
 11  9  1  0
 11 10  1  0
 12 11  2  0
 13  1  1  0
 14 13  1  0
 15 14  2  0
 16 15  1  0
 17 15  1  0
 18 16  2  0
 19 17  2  0
 20 19  1  0
 20 18  1  0
 21 20  1  0
 22 21  1  0
 23 22  2  0
 24 22  1  0
 25 23  1  0
 26 24  2  0
 27 26  1  0
 27 25  2  0
M  CHG  2   3   1  20  -1
M  END
>  <SMILES>  (36) 
S=C1C=CC(=C2C=C(OC=C3C=C[C-](Cc4ccccc4)C=N3)C=[S+]2)N=N1

>  <scaffold>  (36) 
thiophene

$$$$

     RDKit          3D

 33 35  0  0  0  0  0  0  0  0999 V2000
    0.0000    0.0000    0.0000 C   0  0  0  0  0  0  0  0  0  0  0  0
    0.0000   -0.0000    1.3548 C   0  0  0  0  0  0  0  0  0  0  0  0
    1.5868   -0.0000    2.0006 S   0  0  0  0  0  0  0  0  0  0  0  0
    1.3073    0.0000   -0.5288 C   0  0  0  0  0  0  0  0  0  0  0  0
    2.3216   -0.0498    0.3796 C   0  0  0  0  0  0  0  0  0  0  0  0
    3.8016   -0.0060    0.1858 C   0  0  0  0  0  0  0  0  0  0  0  0
    4.1749    1.2428   -0.4331 N   0  0  0  0  0  0  0  0  0  0  0  0
    4.3957    1.4619   -1.7597 C   0  0  0  0  0  0  0  0  0  0  0  0
    4.1777    2.4061    0.2914 N   0  0  0  0  0  0  0  0  0  0  0  0
    4.4240    0.6228   -2.6189 O   0  0  0  0  0  0  0  0  0  0  0  0
    4.5653    2.8427   -1.8506 N   0  0  0  0  0  0  0  0  0  0  0  0
    4.4069    3.3206   -0.5843 C   0  0  0  0  0  0  0  0  0  0  0  0
    4.5498    4.7556   -0.1967 C   0  0  0  0  0  0  0  0  0  0  0  0
    4.8714    3.5816   -2.9827 C   0  0  0  0  0  0  0  0  0  0  0  0
    5.6416    4.6632   -2.8808 N   0  0  0  0  0  0  0  0  0  0  0  0
    4.3664    3.2098   -4.2278 C   0  0  0  0  0  0  0  0  0  0  0  0
    5.9190    5.4209   -3.9211 C   0  0  0  0  0  0  0  0  0  0  0  0
    4.7398    3.9503   -5.3384 C   0  0  0  0  0  0  0  0  0  0  0  0
    5.4106    5.1150   -5.1827 C   0  0  0  0  0  0  0  0  0  0  0  0
    5.7580    5.8868   -6.2207 O   0  0  0  0  0  0  0  0  0  0  0  0
    5.3097    5.5874   -7.5237 C   0  0  0  0  0  0  0  0  0  0  0  0
    6.0874    4.4207   -8.1308 C   0  0  0  0  0  0  0  0  0  0  0  0
    5.6763    4.0915   -9.5649 C   0  0  0  0  0  0  0  0  0  0  0  0
    4.2568    3.5376   -9.6782 C   0  0  0  0  0  0  0  0  0  0  0  0
    3.9189    3.1784  -11.1059 C   0  0  0  0  0  0  0  0  0  0  0  0
    2.5138    2.5805  -11.1564 C   0  0  0  0  0  0  0  0  0  0  0  0
    2.1442    2.1490  -12.5747 C   0  0  0  0  0  0  0  0  0  0  0  0
    0.7563    1.5102  -12.5611 C   0  0  0  0  0  0  0  0  0  0  0  0
    0.3160    1.1097  -13.9683 C   0  0  0  0  0  0  0  0  0  0  0  0
   -1.0496    0.4286  -13.8931 C   0  0  0  0  0  0  0  0  0  0  0  0
   -1.5606    0.0564  -15.2840 C   0  0  0  0  0  0  0  0  0  0  0  0
   -2.9486   -0.5698  -15.1581 C   0  0  0  0  0  0  0  0  0  0  0  0
   -3.3869   -0.9698  -16.5566 C   0  0  0  0  0  0  0  0  0  0  0  0
  2  1  2  0
  3  2  1  0
  4  1  1  0
  5  4  2  0
  5  3  1  0
  6  5  1  0
  7  6  1  0
  8  7  1  0
  9  7  1  0
 10  8  2  0
 11  8  1  0
 12 11  1  0
 12  9  2  0
 13 12  1  0
 14 11  1  0
 15 14  2  0
 16 14  1  0
 17 15  1  0
 18 16  2  0
 19 18  1  0
 19 17  2  0
 20 19  1  0
 21 20  1  0
 22 21  1  0
 23 22  1  0
 24 23  1  0
 25 24  1  0
 26 25  1  0
 27 26  1  0
 28 27  1  0
 29 28  1  0
 30 29  1  0
 31 30  1  0
 32 31  1  0
 33 32  1  0
M  END
>  <SMILES>  (37) 
CCCCCCCCCCCCCOc1ccc(-n2c(C)nn(Cc3cccs3)c2=O)nc1

>  <scaffold>  (37) 
thiophene

$$$$

     RDKit          3D

 20 22  0  0  0  0  0  0  0  0999 V2000
    0.0000    0.0000    0.0000 C   0  0  0  0  0  0  0  0  0  0  0  0
    0.0000    0.0000    1.3548 C   0  0  0  0  0  0  0  0  0  0  0  0
    1.6143    0.0000    2.0118 S   0  0  0  0  0  0  0  0  0  0  0  0
    1.3148   -0.0000   -0.5319 C   0  0  0  0  0  0  0  0  0  0  0  0
    2.3350   -0.0501    0.3817 C   0  0  0  0  0  0  0  0  0  0  0  0
   -1.1657    0.0000    2.2881 C   0  0  0  0  0  0  0  0  0  0  0  0
    3.7484   -0.0115    0.2710 C   0  0  0  0  0  0  0  0  0  0  0  0
    4.6244   -0.0171    1.2235 N   0  0  0  0  0  0  0  0  0  0  0  0
    4.2678    0.0351   -0.9878 O   0  0  0  0  0  0  0  0  0  0  0  0
    5.8384   -0.0230    0.6580 N   0  0  0  0  0  0  0  0  0  0  0  0
    5.5779    0.0046   -0.6145 C   0  0  0  0  0  0  0  0  0  0  0  0
   -1.2988    1.3514    2.9883 C   0  0  0  0  0  0  0  0  0  0  0  0
    6.4256   -0.0150   -1.6315 O   0  0  0  0  0  0  0  0  0  0  0  0
    7.7922    0.0077   -1.4538 C   0  0  0  0  0  0  0  0  0  0  0  0
    8.4501    0.0527   -0.2255 C   0  0  0  0  0  0  0  0  0  0  0  0
    8.5212   -0.0741   -2.6486 C   0  0  0  0  0  0  0  0  0  0  0  0
    9.8256    0.1254   -0.1790 C   0  0  0  0  0  0  0  0  0  0  0  0
    9.9050   -0.0068   -2.6039 C   0  0  0  0  0  0  0  0  0  0  0  0
   10.6145    0.1571   -1.3280 C   0  0  0  0  0  0  0  0  0  0  0  0
   11.9525    0.2818   -1.1554 O   0  0  0  0  0  0  0  0  0  0  0  0
  2  1  2  0
  3  2  1  0
  4  1  1  0
  5  4  2  0
  5  3  1  0
  6  2  1  0
  7  5  1  0
  8  7  2  0
  9  7  1  0
 10  8  1  0
 11  9  1  0
 11 10  2  0
 12  6  1  0
 13 11  1  0
 14 13  1  0
 15 14  2  0
 16 14  1  0
 17 15  1  0
 18 16  2  0
 19 18  1  0
 19 17  2  0
 20 19  1  0
M  END
>  <SMILES>  (38) 
CCc1ccc(-c2nnc(Oc3ccc(O)cc3)o2)s1

>  <scaffold>  (38) 
thiophene

$$$$

     RDKit          3D

 27 29  0  0  0  0  0  0  0  0999 V2000
    0.0000    0.0000   -0.0000 C   0  0  0  0  0  0  0  0  0  0  0  0
    0.0000    0.0000    1.3704 C   0  0  0  0  0  0  0  0  0  0  0  0
    1.2898    0.0000    1.9202 C   0  0  0  0  0  0  0  0  0  0  0  0
    1.6065    0.0000   -0.6499 S   0  0  0  0  0  0  0  0  0  0  0  0
    2.2879    0.0671    0.9206 C   0  0  0  0  0  0  0  0  0  0  0  0
   -1.1705   -0.0575   -0.8417 C   0  0  0  0  0  0  0  0  0  0  0  0
   -2.3459   -0.1152   -0.2348 N   0  0  0  0  0  0  0  0  0  0  0  0
   -1.0367   -0.1054   -2.2285 C   0  0  0  0  0  0  0  0  0  0  0  0
   -3.4317   -0.2159   -0.9590 C   0  0  0  0  0  0  0  0  0  0  0  0
   -2.1813   -0.2091   -2.9893 C   0  0  0  0  0  0  0  0  0  0  0  0
   -3.4287   -0.2669   -2.3522 C   0  0  0  0  0  0  0  0  0  0  0  0
   -4.6277   -0.3190   -2.9973 O   0  0  0  0  0  0  0  0  0  0  0  0
   -4.6741   -0.4221   -4.3949 C   0  0  0  0  0  0  0  0  0  0  0  0
   -4.1011   -1.7246   -4.9512 C   0  0  0  0  0  0  0  0  0  0  0  0
   -3.7215   -1.8578   -6.0758 O   0  0  0  0  0  0  0  0  0  0  0  0
   -4.0725   -2.6440   -3.9988 O   0  0  0  0  0  0  0  0  0  0  0  0
   -3.6588   -3.9529   -4.1910 C   0  0  0  0  0  0  0  0  0  0  0  0
   -2.6206   -4.3017   -5.0406 C   0  0  0  0  0  0  0  0  0  0  0  0
   -4.2330   -4.9459   -3.3985 C   0  0  0  0  0  0  0  0  0  0  0  0
   -2.2674   -5.6323   -5.1070 C   0  0  0  0  0  0  0  0  0  0  0  0
   -3.8663   -6.2731   -3.4588 C   0  0  0  0  0  0  0  0  0  0  0  0
   -2.8718   -6.5986   -4.3181 C   0  0  0  0  0  0  0  0  0  0  0  0
   -2.3488   -8.2280   -4.4002 Cl  0  0  0  0  0  0  0  0  0  0  0  0
   -4.3722   -7.2853   -2.6582 N   0  0  0  0  0  0  0  0  0  0  0  0
   -5.2133   -7.1532   -1.5944 C   0  0  0  0  0  0  0  0  0  0  0  0
   -5.6422   -6.1304   -1.0981 O   0  0  0  0  0  0  0  0  0  0  0  0
   -5.4618   -8.4830   -0.9824 C   0  0  0  0  0  0  0  0  0  0  0  0
  2  1  2  0
  3  2  1  0
  4  1  1  0
  5  4  1  0
  5  3  2  0
  6  1  1  0
  7  6  2  0
  8  6  1  0
  9  7  1  0
 10  8  2  0
 11 10  1  0
 11  9  2  0
 12 11  1  0
 13 12  1  0
 14 13  1  0
 15 14  2  0
 16 14  1  0
 17 16  1  0
 18 17  2  0
 19 17  1  0
 20 18  1  0
 21 19  2  0
 22 21  1  0
 22 20  2  0
 23 22  1  0
 24 21  1  0
 25 24  1  0
 26 25  2  0
 27 25  1  0
M  END
>  <SMILES>  (39) 
CC(=O)Nc1cc(OC(=O)COc2ccc(-c3cccs3)nc2)ccc1Cl

>  <scaffold>  (39) 
thiophene

$$$$

     RDKit          3D

 33 35  0  0  0  0  0  0  0  0999 V2000
    0.0000    0.0000   -0.0000 C   0  0  0  0  0  0  0  0  0  0  0  0
    0.0000   -0.0000    1.3625 C   0  0  0  0  0  0  0  0  0  0  0  0
    1.3061    0.0000    1.8942 C   0  0  0  0  0  0  0  0  0  0  0  0
    1.5882   -0.0000   -0.6425 S   0  0  0  0  0  0  0  0  0  0  0  0
    2.2696    0.0671    0.9280 C   0  0  0  0  0  0  0  0  0  0  0  0
   -1.4302   -0.0703   -1.0284 S   0  0  2  0  0  6  0  0  0  0  0  0
   -1.2055    0.7990   -2.1473 O   0  0  0  0  0  0  0  0  0  0  0  0
   -2.5796    0.1584   -0.1868 O   0  0  0  0  0  0  0  0  0  0  0  0
   -1.3525   -1.6518   -1.5112 N   0  0  0  0  0  0  0  0  0  0  0  0
   -1.4339   -1.9311   -2.9160 C   0  0  0  0  0  0  0  0  0  0  0  0
   -2.8375   -2.0437   -3.4131 C   0  0  0  0  0  0  0  0  0  0  0  0
   -3.7661   -2.8454   -2.9783 N   0  0  0  0  0  0  0  0  0  0  0  0
   -3.2992   -1.2496   -4.4089 N   0  0  0  0  0  0  0  0  0  0  0  0
   -4.8761   -2.6352   -3.7678 O   0  0  0  0  0  0  0  0  0  0  0  0
   -4.5157   -1.7118   -4.5508 C   0  0  0  0  0  0  0  0  0  0  0  0
   -5.4309   -1.2036   -5.4108 N   0  0  0  0  0  0  0  0  0  0  0  0
   -4.9540   -0.4044   -6.5242 C   0  0  0  0  0  0  0  0  0  0  0  0
   -4.3810   -1.2610   -7.6402 C   0  0  0  0  0  0  0  0  0  0  0  0
   -3.4948   -0.6565   -8.5181 C   0  0  0  0  0  0  0  0  0  0  0  0
   -4.6651   -2.6053   -7.8236 C   0  0  0  0  0  0  0  0  0  0  0  0
   -2.9903   -1.3766   -9.5692 C   0  0  0  0  0  0  0  0  0  0  0  0
   -4.1649   -3.3219   -8.8690 C   0  0  0  0  0  0  0  0  0  0  0  0
   -3.3225   -2.7085   -9.8127 C   0  0  0  0  0  0  0  0  0  0  0  0
   -2.8127   -3.4730  -10.8083 N   0  0  0  0  0  0  0  0  0  0  0  0
   -1.9375   -2.9343  -11.8328 C   0  0  0  0  0  0  0  0  0  0  0  0
   -1.2193   -4.1331  -12.4503 C   0  0  0  0  0  0  0  0  0  0  0  0
   -0.3418   -4.9373  -11.4924 C   0  0  0  0  0  0  0  0  0  0  0  0
    0.2358   -6.2014  -12.1272 C   0  0  0  0  0  0  0  0  0  0  0  0
    1.0771   -7.0703  -11.1936 C   0  0  0  0  0  0  0  0  0  0  0  0
    1.5851   -8.3474  -11.8609 C   0  0  0  0  0  0  0  0  0  0  0  0
    2.3868   -9.2785  -10.9528 C   0  0  0  0  0  0  0  0  0  0  0  0
    2.8243  -10.5644  -11.6523 C   0  0  0  0  0  0  0  0  0  0  0  0
    3.6668  -11.4336  -10.7200 C   0  0  0  0  0  0  0  0  0  0  0  0
  2  1  1  0
  3  2  2  0
  4  1  1  0
  5  4  2  0
  5  3  1  0
  6  1  2  0
  7  6  2  0
  6  8  1  1
  9  6  1  0
 10  9  1  0
 11 10  1  0
 12 11  2  0
 13 11  1  0
 14 12  1  0
 15 14  1  0
 15 13  2  0
 16 15  1  0
 17 16  1  0
 18 17  1  0
 19 18  2  0
 20 18  1  0
 21 19  1  0
 22 20  2  0
 23 22  1  0
 23 21  2  0
 24 23  1  0
 25 24  1  0
 26 25  1  0
 27 26  1  0
 28 27  1  0
 29 28  1  0
 30 29  1  0
 31 30  1  0
 32 31  1  0
 33 32  1  0
M  CHG  2   4   1   8  -1
M  END
>  <SMILES>  (40) 
CCCCCCCCCNc1ccc(CNc2nc(CNS(=O)([O-])=C3C=CC=[S+]3)no2)cc1

>  <scaffold>  (40) 
thiophene

$$$$

     RDKit          3D

 33 35  0  0  0  0  0  0  0  0999 V2000
    0.0000   -0.0000   -0.0000 C   0  0  0  0  0  0  0  0  0  0  0  0
   -0.0000   -0.0000    1.3625 C   0  0  0  0  0  0  0  0  0  0  0  0
    1.5868    0.0000    2.0084 S   0  0  0  0  0  0  0  0  0  0  0  0
    1.3073   -0.0000   -0.5288 C   0  0  0  0  0  0  0  0  0  0  0  0
    2.3274   -0.0501    0.3848 C   0  0  0  0  0  0  0  0  0  0  0  0
    3.7639   -0.1223    0.1921 C   0  0  0  0  0  0  0  0  0  0  0  0
    4.2681   -0.1487   -0.8979 O   0  0  0  0  0  0  0  0  0  0  0  0
    4.4599   -0.2101    1.3693 O   0  0  0  0  0  0  0  0  0  0  0  0
    5.7754   -0.5288    1.4253 C   0  0  0  0  0  0  0  0  0  0  0  0
    6.2791   -1.3118    0.4945 N   0  0  0  0  0  0  0  0  0  0  0  0
    6.5068   -0.0631    2.5068 C   0  0  0  0  0  0  0  0  0  0  0  0
    7.5502   -1.6332    0.6147 C   0  0  0  0  0  0  0  0  0  0  0  0
    7.8214   -0.3994    2.6303 C   0  0  0  0  0  0  0  0  0  0  0  0
    8.4063   -1.2205    1.6346 C   0  0  0  0  0  0  0  0  0  0  0  0
    9.7430   -1.4881    1.7744 O   0  0  0  0  0  0  0  0  0  0  0  0
   10.3702   -2.2277    0.7394 C   0  0  0  0  0  0  0  0  0  0  0  0
   10.6704   -1.3688   -0.4880 C   0  0  0  0  0  0  0  0  0  0  0  0
   11.5419   -2.0550   -1.5386 C   0  0  0  0  0  0  0  0  0  0  0  0
   11.8573   -1.1365   -2.7181 C   0  0  0  0  0  0  0  0  0  0  0  0
   12.7724   -1.7582   -3.7720 C   0  0  0  0  0  0  0  0  0  0  0  0
   13.0122   -0.8206   -4.9543 C   0  0  0  0  0  0  0  0  0  0  0  0
   13.8780   -1.4169   -6.0630 C   0  0  0  0  0  0  0  0  0  0  0  0
   14.0393   -0.4777   -7.2237 C   0  0  0  0  0  0  0  0  0  0  0  0
   15.0515    0.4799   -7.2684 C   0  0  0  0  0  0  0  0  0  0  0  0
   13.0619   -0.3913   -8.1916 C   0  0  0  0  0  0  0  0  0  0  0  0
   15.1300    1.3527   -8.3322 C   0  0  0  0  0  0  0  0  0  0  0  0
   13.1432    0.4909   -9.2474 C   0  0  0  0  0  0  0  0  0  0  0  0
   14.2318    1.3279   -9.3877 C   0  0  0  0  0  0  0  0  0  0  0  0
   14.3770    2.1741  -10.4357 O   0  0  0  0  0  0  0  0  0  0  0  0
   13.4204    2.2794  -11.4664 C   0  0  0  0  0  0  0  0  0  0  0  0
   12.1953    3.0652  -11.0017 C   0  0  0  0  0  0  0  0  0  0  0  0
   11.1037    3.1611  -12.0665 C   0  0  0  0  0  0  0  0  0  0  0  0
    9.8815    3.9077  -11.5345 C   0  0  0  0  0  0  0  0  0  0  0  0
  2  1  1  0
  3  2  2  0
  4  1  2  0
  5  4  1  0
  5  3  1  0
  6  5  2  0
  7  6  1  0
  8  6  1  0
  9  8  1  0
 10  9  2  0
 11  9  1  0
 12 10  1  0
 13 11  2  0
 14 13  1  0
 14 12  2  0
 15 14  1  0
 16 15  1  0
 17 16  1  0
 18 17  1  0
 19 18  1  0
 20 19  1  0
 21 20  1  0
 22 21  1  0
 23 22  1  0
 24 23  2  0
 25 23  1  0
 26 24  1  0
 27 25  2  0
 28 27  1  0
 28 26  2  0
 29 28  1  0
 30 29  1  0
 31 30  1  0
 32 31  1  0
 33 32  1  0
M  CHG  2   3   1   7  -1
M  END
>  <SMILES>  (41) 
CCCCOc1ccc(CCCCCCCOc2ccc(OC([O-])=C3C=CC=[S+]3)nc2)cc1

>  <scaffold>  (41) 
thiophene

$$$$

     RDKit          3D

 25 27  0  0  0  0  0  0  0  0999 V2000
   -0.0000    0.0000    0.0000 C   0  0  0  0  0  0  0  0  0  0  0  0
    0.0000   -0.0000    1.3625 C   0  0  0  0  0  0  0  0  0  0  0  0
    1.5760   -0.0000    2.0344 S   0  0  0  0  0  0  0  0  0  0  0  0
    1.2998   -0.0000   -0.5258 C   0  0  0  0  0  0  0  0  0  0  0  0
    2.3200    0.0501    0.3878 C   0  0  0  0  0  0  0  0  0  0  0  0
    3.7565    0.1223    0.1951 C   0  0  0  0  0  0  0  0  0  0  0  0
    4.1696    0.1442   -0.9548 O   0  0  0  0  0  0  0  0  0  0  0  0
    4.6279    0.1109    1.2425 N   0  0  0  0  0  0  0  0  0  0  0  0
    5.9794    0.2256    1.1128 N   0  0  0  0  0  0  0  0  0  0  0  0
    6.8403    0.1737    2.0677 C   0  0  0  0  0  0  0  0  0  0  0  0
    8.2436    0.2480    1.8762 C   0  0  0  0  0  0  0  0  0  0  0  0
    9.3461    0.1646    2.6858 C   0  0  0  0  0  0  0  0  0  0  0  0
    8.6966    0.4176    0.2121 S   0  0  0  0  0  0  0  0  0  0  0  0
   10.6073    0.3483    2.1013 C   0  0  0  0  0  0  0  0  0  0  0  0
   10.2947    0.4913    0.8521 C   0  0  0  0  0  0  0  0  0  0  0  0
   11.3911    0.7147   -0.1367 C   0  0  0  0  0  0  0  0  0  0  0  0
   11.3802    2.1398   -0.6105 C   0  0  0  0  0  0  0  0  0  0  0  0
   12.1513    3.1356   -0.0509 C   0  0  0  0  0  0  0  0  0  0  0  0
   10.4403    2.5238   -1.5658 C   0  0  0  0  0  0  0  0  0  0  0  0
   12.0707    4.4478   -0.4902 C   0  0  0  0  0  0  0  0  0  0  0  0
   10.3603    3.8314   -1.9941 C   0  0  0  0  0  0  0  0  0  0  0  0
   11.2035    4.8131   -1.5189 C   0  0  0  0  0  0  0  0  0  0  0  0
   10.9976    6.0715   -1.9990 O   0  0  0  0  0  0  0  0  0  0  0  0
   11.7762    7.1592   -1.5525 C   0  0  0  0  0  0  0  0  0  0  0  0
   13.1679    7.1464   -2.1830 C   0  0  0  0  0  0  0  0  0  0  0  0
  2  1  1  0
  3  2  2  0
  4  1  2  0
  5  4  1  0
  5  3  1  0
  6  5  2  0
  7  6  1  0
  8  6  1  0
  9  8  1  0
 10  9  2  0
 11 10  1  0
 12 11  2  0
 13 11  1  0
 14 12  1  0
 15 14  2  0
 15 13  1  0
 16 15  1  0
 17 16  1  0
 18 17  2  0
 19 17  1  0
 20 18  1  0
 21 19  2  0
 22 21  1  0
 22 20  2  0
 23 22  1  0
 24 23  1  0
 25 24  1  0
M  CHG  2   3   1   7  -1
M  END
>  <SMILES>  (42) 
CCOc1ccc(Cc2ccc(C=NNC([O-])=C3C=CC=[S+]3)s2)cc1

>  <scaffold>  (42) 
thiophene

$$$$

     RDKit          3D

 26 28  0  0  0  0  0  0  0  0999 V2000
    0.0000    0.0000   -0.0000 C   0  0  0  0  0  0  0  0  0  0  0  0
    0.0000   -0.0000    1.3704 C   0  0  0  0  0  0  0  0  0  0  0  0
    1.2987   -0.0000    1.8989 C   0  0  0  0  0  0  0  0  0  0  0  0
    1.6065    0.0000   -0.6499 S   0  0  0  0  0  0  0  0  0  0  0  0
    2.2879   -0.0671    0.9206 C   0  0  0  0  0  0  0  0  0  0  0  0
   -1.1263    0.0000   -0.9018 C   0  0  0  0  0  0  0  0  0  0  0  0
   -0.8278    0.1521   -2.1828 N   0  0  0  0  0  0  0  0  0  0  0  0
   -2.3170   -0.1766   -0.3501 N   0  0  0  0  0  0  0  0  0  0  0  0
   -1.8324    0.1106   -3.0560 C   0  0  0  0  0  0  0  0  0  0  0  0
   -3.3153   -0.2167   -1.2190 C   0  0  0  0  0  0  0  0  0  0  0  0
   -3.1433   -0.0884   -2.6001 C   0  0  0  0  0  0  0  0  0  0  0  0
   -1.4721    0.2230   -4.3652 N   0  0  0  0  0  0  0  0  0  0  0  0
   -2.3276    0.1509   -5.3733 N   0  0  0  0  0  0  0  0  0  0  0  0
   -1.9521    0.3075   -6.5863 C   0  0  0  0  0  0  0  0  0  0  0  0
   -2.8966    0.1710   -7.6355 C   0  0  0  0  0  0  0  0  0  0  0  0
   -2.6990    0.3532   -8.9793 C   0  0  0  0  0  0  0  0  0  0  0  0
   -4.5337   -0.2772   -7.2862 S   0  0  0  0  0  0  0  0  0  0  0  0
   -3.8292    0.0851   -9.7502 C   0  0  0  0  0  0  0  0  0  0  0  0
   -4.9136   -0.2795   -8.9468 C   0  0  0  0  0  0  0  0  0  0  0  0
   -3.9093    0.2413  -11.1014 F   0  0  0  0  0  0  0  0  0  0  0  0
   -6.2767   -0.5460   -9.4716 C   0  0  0  0  0  0  0  0  0  0  0  0
   -7.2272    0.5509   -8.9945 C   0  0  0  0  0  0  0  0  0  0  0  0
   -8.5953    0.3577   -9.5381 C   0  0  0  0  0  0  0  0  0  0  0  0
   -9.0514   -0.4927  -10.2650 O   0  0  0  0  0  0  0  0  0  0  0  0
   -9.3095    1.3845   -9.1036 O   0  0  0  0  0  0  0  0  0  0  0  0
  -10.6630    1.2849   -9.5154 C   0  0  0  0  0  0  0  0  0  0  0  0
  2  1  2  0
  3  2  1  0
  4  1  1  0
  5  4  1  0
  5  3  2  0
  6  1  1  0
  7  6  2  0
  8  6  1  0
  9  7  1  0
 10  8  2  0
 11 10  1  0
 11  9  2  0
 12  9  1  0
 13 12  1  0
 14 13  2  0
 15 14  1  0
 16 15  2  0
 17 15  1  0
 18 16  1  0
 19 18  2  0
 19 17  1  0
 20 18  1  0
 21 19  1  0
 22 21  1  0
 23 22  1  0
 24 23  2  0
 25 23  1  0
 26 25  1  0
M  END
>  <SMILES>  (43) 
COC(=O)CCc1sc(C=NNc2ccnc(-c3cccs3)n2)cc1F

>  <scaffold>  (43) 
thiophene

$$$$

     RDKit          3D

 25 26  0  0  0  0  0  0  0  0999 V2000
   -0.0000    0.0000   -0.0000 C   0  0  0  0  0  0  0  0  0  0  0  0
    0.0000   -0.0000    1.3548 C   0  0  0  0  0  0  0  0  0  0  0  0
    1.5760   -0.0000    2.0266 S   0  0  0  0  0  0  0  0  0  0  0  0
    1.3073   -0.0000   -0.5288 C   0  0  0  0  0  0  0  0  0  0  0  0
    2.3216   -0.0498    0.3796 C   0  0  0  0  0  0  0  0  0  0  0  0
    3.7764   -0.0067    0.1891 C   0  0  0  0  0  0  0  0  0  0  0  0
    4.2348    0.1433   -0.9187 O   0  0  0  0  0  0  0  0  0  0  0  0
    4.4557   -0.1335    1.3274 O   0  0  0  0  0  0  0  0  0  0  0  0
    5.8572   -0.1718    1.3445 N   0  0  0  0  0  0  0  0  0  0  0  0
    6.5050    0.7574    0.7497 C   0  0  0  0  0  0  0  0  0  0  0  0
    7.8403    0.6542    0.7511 N   0  0  0  0  0  0  0  0  0  0  0  0
    5.9743    1.8487    0.1298 N   0  0  0  0  0  0  0  0  0  0  0  0
    6.6874    2.8117   -0.4335 N   0  0  0  0  0  0  0  0  0  0  0  0
    6.1510    3.8367   -0.9623 C   0  0  0  0  0  0  0  0  0  0  0  0
    6.9777    4.8457   -1.6168 C   0  0  0  0  0  0  0  0  0  0  0  0
    6.3829    5.9578   -2.0445 N   0  0  0  0  0  0  0  0  0  0  0  0
    8.3656    4.6758   -1.7995 C   0  0  0  0  0  0  0  0  0  0  0  0
    7.0124    6.9073   -2.6892 C   0  0  0  0  0  0  0  0  0  0  0  0
    9.0285    5.6752   -2.4787 C   0  0  0  0  0  0  0  0  0  0  0  0
    8.3744    6.7693   -2.9528 C   0  0  0  0  0  0  0  0  0  0  0  0
    8.9058    7.7957   -3.6743 O   0  0  0  0  0  0  0  0  0  0  0  0
   10.2921    7.7252   -3.9226 C   0  0  0  0  0  0  0  0  0  0  0  0
   11.1271    8.1430   -2.7132 C   0  0  0  0  0  0  0  0  0  0  0  0
   12.6367    8.1364   -2.9483 C   0  0  0  0  0  0  0  0  0  0  0  0
   13.4178    8.5041   -1.7089 C   0  0  0  0  0  0  0  0  0  0  0  0
  2  1  1  0
  3  2  2  0
  4  1  2  0
  5  4  1  0
  5  3  1  0
  6  5  2  0
  7  6  1  0
  8  6  1  0
  9  8  1  0
 10  9  2  0
 11 10  1  0
 12 10  1  0
 13 12  1  0
 14 13  2  0
 15 14  1  0
 16 15  2  0
 17 15  1  0
 18 16  1  0
 19 17  2  0
 20 19  1  0
 20 18  2  0
 21 20  1  0
 22 21  1  0
 23 22  1  0
 24 23  1  0
 25 24  1  0
M  CHG  2   3   1   7  -1
M  END
>  <SMILES>  (44) 
CCCCOc1ccc(C=NNC(N)=NOC([O-])=C2C=CC=[S+]2)nc1

>  <scaffold>  (44) 
thiophene

$$$$

     RDKit          3D

 28 30  0  0  0  0  0  0  0  0999 V2000
   -0.0000   -0.0000    0.0000 C   0  0  0  0  0  0  0  0  0  0  0  0
    0.0000    0.0000    1.3548 C   0  0  0  0  0  0  0  0  0  0  0  0
    1.5960    0.0000    2.0043 S   0  0  0  0  0  0  0  0  0  0  0  0
    1.3073   -0.0000   -0.5288 C   0  0  0  0  0  0  0  0  0  0  0  0
    2.3216   -0.0498    0.3796 C   0  0  0  0  0  0  0  0  0  0  0  0
    3.6876   -0.0093    0.2007 N   0  0  0  0  0  0  0  0  0  0  0  0
    4.6068   -0.1202    1.1897 C   0  0  0  0  0  0  0  0  0  0  0  0
    4.1978   -0.2670    2.3245 O   0  0  0  0  0  0  0  0  0  0  0  0
    6.0329   -0.1089    0.7767 C   0  0  0  0  0  0  0  0  0  0  0  0
    6.2282    0.0087   -0.5123 N   0  0  0  0  0  0  0  0  0  0  0  0
    7.1364   -0.2691    1.6531 C   0  0  0  0  0  0  0  0  0  0  0  0
    7.4788    0.0705   -0.9191 N   0  0  0  0  0  0  0  0  0  0  0  0
    8.4282   -0.3003    1.2210 C   0  0  0  0  0  0  0  0  0  0  0  0
    8.6515   -0.0349   -0.1577 C   0  0  0  0  0  0  0  0  0  0  0  0
    9.8038   -0.0152   -0.5849 O   0  0  0  0  0  0  0  0  0  0  0  0
    9.6122   -0.5184    2.0899 C   0  0  0  0  0  0  0  0  0  0  0  0
    7.5589    0.1416   -2.3415 C   0  0  0  0  0  0  0  0  0  0  0  0
    8.6015    0.8383   -2.9322 C   0  0  0  0  0  0  0  0  0  0  0  0
    6.5960   -0.4743   -3.1396 C   0  0  0  0  0  0  0  0  0  0  0  0
    8.6100    0.9210   -4.3079 C   0  0  0  0  0  0  0  0  0  0  0  0
    6.6044   -0.3920   -4.4996 C   0  0  0  0  0  0  0  0  0  0  0  0
    7.5921    0.3881   -5.0974 C   0  0  0  0  0  0  0  0  0  0  0  0
    7.5317    0.4912   -6.4945 N   0  0  0  0  0  0  0  0  0  0  0  0
    8.4779    0.9946   -7.3484 C   0  0  0  0  0  0  0  0  0  0  0  0
    9.5534    1.4445   -7.0060 O   0  0  0  0  0  0  0  0  0  0  0  0
    7.9811    0.9694   -8.7655 C   0  0  0  0  0  0  0  0  0  0  0  0
    7.1977    2.2647   -9.0766 C   0  0  0  0  0  0  0  0  0  0  0  0
    6.4709    2.0518  -10.4035 C   0  0  0  0  0  0  0  0  0  0  0  0
  2  1  2  0
  3  2  1  0
  4  1  1  0
  5  4  2  0
  5  3  1  0
  6  5  1  0
  7  6  1  0
  8  7  2  0
  9  7  1  0
 10  9  2  0
 11  9  1  0
 12 10  1  0
 13 11  2  0
 14 13  1  0
 14 12  1  0
 15 14  2  0
 16 13  1  0
 17 12  1  0
 18 17  2  0
 19 17  1  0
 20 18  1  0
 21 19  2  0
 22 21  1  0
 22 20  2  0
 23 22  1  0
 24 23  1  0
 25 24  2  0
 26 24  1  0
 27 26  1  0
 28 27  1  0
M  END
>  <SMILES>  (45) 
CCCC(=O)Nc1ccc(-n2nc(C(=O)Nc3cccs3)cc(C)c2=O)cc1

>  <scaffold>  (45) 
thiophene

$$$$

     RDKit          3D

 29 30  0  0  0  0  0  0  0  0999 V2000
    0.0000    0.0000    0.0000 C   0  0  0  0  0  0  0  0  0  0  0  0
   -0.0000   -0.0000    1.3625 C   0  0  0  0  0  0  0  0  0  0  0  0
    1.6143   -0.0000    2.0196 S   0  0  0  0  0  0  0  0  0  0  0  0
    1.3148    0.0000   -0.5319 C   0  0  0  0  0  0  0  0  0  0  0  0
    2.3350   -0.0501    0.3817 C   0  0  0  0  0  0  0  0  0  0  0  0
   -1.1310   -0.0556    2.1758 N   0  0  0  0  0  0  0  0  0  0  0  0
   -1.2045   -0.0592   -0.8661 C   0  0  0  0  0  0  0  0  0  0  0  0
    3.7085   -0.0126    0.2741 N   0  0  0  0  0  0  0  0  0  0  0  0
    4.4199   -0.6234   -0.7252 C   0  0  0  0  0  0  0  0  0  0  0  0
    5.5989   -0.3444   -0.8182 O   0  0  0  0  0  0  0  0  0  0  0  0
    3.9167   -1.5006   -1.6383 N   0  0  0  0  0  0  0  0  0  0  0  0
    4.6233   -2.2486   -2.5907 N   0  0  0  0  0  0  0  0  0  0  0  0
   -1.0047    0.0042    3.5390 C   0  0  0  0  0  0  0  0  0  0  0  0
    0.0671    0.1054    4.0873 O   0  0  0  0  0  0  0  0  0  0  0  0
   -2.2177   -0.0107    4.1595 N   0  0  0  0  0  0  0  0  0  0  0  0
   -2.3264   -0.1206    5.6192 C   0  0  0  0  0  0  0  0  0  0  0  0
   -1.4822    0.9290    6.3216 C   0  0  0  0  0  0  0  0  0  0  0  0
   -1.7217    2.2631    5.9954 C   0  0  0  0  0  0  0  0  0  0  0  0
   -0.4508    0.5981    7.1866 C   0  0  0  0  0  0  0  0  0  0  0  0
   -0.8878    3.2530    6.5133 C   0  0  0  0  0  0  0  0  0  0  0  0
    0.3567    1.5726    7.6913 C   0  0  0  0  0  0  0  0  0  0  0  0
    0.1986    2.9185    7.2927 C   0  0  0  0  0  0  0  0  0  0  0  0
    1.1283    3.8528    7.7218 N   0  0  0  0  0  0  0  0  0  0  0  0
    1.1232    5.2501    7.6054 C   0  0  0  0  0  0  0  0  0  0  0  0
    0.1292    5.8655    7.2741 O   0  0  0  0  0  0  0  0  0  0  0  0
    2.3034    5.7812    7.9192 N   0  0  0  0  0  0  0  0  0  0  0  0
    2.6662    7.2019    7.8514 C   0  0  0  0  0  0  0  0  0  0  0  0
    1.6575    7.9968    8.6789 C   0  0  0  0  0  0  0  0  0  0  0  0
    2.5674    7.6448    6.3925 C   0  0  0  0  0  0  0  0  0  0  0  0
  2  1  2  0
  3  2  1  0
  4  1  1  0
  5  4  2  0
  5  3  1  0
  6  2  1  0
  7  1  1  0
  8  5  1  0
  9  8  1  0
 10  9  2  0
 11  9  1  0
 12 11  1  0
 13  6  1  0
 14 13  2  0
 15 13  1  0
 16 15  1  0
 17 16  1  0
 18 17  2  0
 19 17  1  0
 20 18  1  0
 21 19  2  0
 22 21  1  0
 22 20  2  0
 23 22  1  0
 24 23  1  0
 25 24  2  0
 26 24  1  0
 27 26  1  0
 28 27  1  0
 29 27  1  0
M  END
>  <SMILES>  (46) 
Cc1cc(NC(=O)NN)sc1NC(=O)NCc1ccc(NC(=O)NC(C)C)cc1

>  <scaffold>  (46) 
thiophene

$$$$

     RDKit          3D

 23 25  0  0  0  0  0  0  0  0999 V2000
    0.0000   -0.0000    0.0000 C   0  0  0  0  0  0  0  0  0  0  0  0
    0.0000   -0.0000    1.3625 C   0  0  0  0  0  0  0  0  0  0  0  0
    1.2972    0.0000    1.9156 C   0  0  0  0  0  0  0  0  0  0  0  0
    1.6065   -0.0000   -0.6499 S   0  0  0  0  0  0  0  0  0  0  0  0
    2.2918    0.0675    0.9296 C   0  0  0  0  0  0  0  0  0  0  0  0
   -1.1791    0.0000   -0.9440 C   0  0  0  0  0  0  0  0  0  0  0  0
   -2.1400    1.0602   -0.7022 N   0  0  0  0  0  0  0  0  0  0  0  0
   -1.7013    2.3972   -1.0567 C   0  0  0  0  0  0  0  0  0  0  0  0
   -0.6496    2.9777   -0.1696 C   0  0  0  0  0  0  0  0  0  0  0  0
   -0.9591    2.9996    1.1572 O   0  0  0  0  0  0  0  0  0  0  0  0
    0.6559    3.3662   -0.3795 C   0  0  0  0  0  0  0  0  0  0  0  0
    0.1280    3.5073    1.8030 C   0  0  0  0  0  0  0  0  0  0  0  0
    1.1638    3.7953    0.8733 C   0  0  0  0  0  0  0  0  0  0  0  0
    0.0123    3.5615    3.2994 C   0  0  0  0  0  0  0  0  0  0  0  0
    1.2002    4.0461    3.8449 O   0  0  0  0  0  0  0  0  0  0  0  0
    1.4468    5.4179    3.8142 C   0  0  0  0  0  0  0  0  0  0  0  0
    2.6693    5.8498    4.3265 C   0  0  0  0  0  0  0  0  0  0  0  0
    0.5786    6.3403    3.2712 C   0  0  0  0  0  0  0  0  0  0  0  0
    3.0074    7.1921    4.4004 C   0  0  0  0  0  0  0  0  0  0  0  0
    0.9144    7.6911    3.3493 C   0  0  0  0  0  0  0  0  0  0  0  0
    2.0586    8.1187    3.9973 C   0  0  0  0  0  0  0  0  0  0  0  0
   -0.0434    8.5069    2.8264 O   0  0  0  0  0  0  0  0  0  0  0  0
    0.2292    9.8930    2.7004 C   0  0  0  0  0  0  0  0  0  0  0  0
  2  1  2  0
  3  2  1  0
  4  1  1  0
  5  4  1  0
  5  3  2  0
  6  1  1  0
  7  6  1  0
  8  7  1  0
  9  8  1  0
 10  9  1  0
 11  9  2  0
 12 10  1  0
 13 12  2  0
 13 11  1  0
 14 12  1  0
 15 14  1  0
 16 15  1  0
 17 16  2  0
 18 16  1  0
 19 17  1  0
 20 18  2  0
 21 20  1  0
 21 19  2  0
 22 20  1  0
 23 22  1  0
M  END
>  <SMILES>  (47) 
COc1cccc(OCc2ccc(CNCc3cccs3)o2)c1

>  <scaffold>  (47) 
thiophene

$$$$

     RDKit          3D

 22 24  0  0  0  0  0  0  0  0999 V2000
    0.0000   -0.0000    0.0000 C   0  0  0  0  0  0  0  0  0  0  0  0
    0.0000   -0.0000    1.3548 C   0  0  0  0  0  0  0  0  0  0  0  0
    1.5960   -0.0000    2.0043 S   0  0  0  0  0  0  0  0  0  0  0  0
    1.3073    0.0000   -0.5288 C   0  0  0  0  0  0  0  0  0  0  0  0
    2.3216    0.0498    0.3796 C   0  0  0  0  0  0  0  0  0  0  0  0
    3.6721    0.0098    0.2027 N   0  0  0  0  0  0  0  0  0  0  0  0
    4.5756    0.1188    1.1749 N   0  0  0  0  0  0  0  0  0  0  0  0
    5.8497    0.0289    0.9670 C   0  0  0  0  0  0  0  0  0  0  0  0
    6.8679    0.1911    1.9764 C   0  0  0  0  0  0  0  0  0  0  0  0
    8.2282    0.0358    1.7139 C   0  0  0  0  0  0  0  0  0  0  0  0
    6.5148    0.5281    3.2822 C   0  0  0  0  0  0  0  0  0  0  0  0
    9.1873    0.2189    2.5858 N   0  0  0  0  0  0  0  0  0  0  0  0
    7.5248    0.7205    4.2000 C   0  0  0  0  0  0  0  0  0  0  0  0
    8.8393    0.5838    3.8266 C   0  0  0  0  0  0  0  0  0  0  0  0
    9.8979    0.7898    4.6077 O   0  0  0  0  0  0  0  0  0  0  0  0
    9.6599    1.2372    5.9411 C   0  0  0  0  0  0  0  0  0  0  0  0
   10.9823    1.5545    6.5579 C   0  0  0  0  0  0  0  0  0  0  0  0
   11.6651    2.7150    6.2285 C   0  0  0  0  0  0  0  0  0  0  0  0
   11.5700    0.7295    7.4926 C   0  0  0  0  0  0  0  0  0  0  0  0
   12.9091    3.0257    6.7340 C   0  0  0  0  0  0  0  0  0  0  0  0
   12.8360    1.0442    8.0065 C   0  0  0  0  0  0  0  0  0  0  0  0
   13.5280    2.1528    7.6151 C   0  0  0  0  0  0  0  0  0  0  0  0
  2  1  2  0
  3  2  1  0
  4  1  1  0
  5  4  2  0
  5  3  1  0
  6  5  1  0
  7  6  1  0
  8  7  2  0
  9  8  1  0
 10  9  2  0
 11  9  1  0
 12 10  1  0
 13 11  2  0
 14 13  1  0
 14 12  2  0
 15 14  1  0
 16 15  1  0
 17 16  1  0
 18 17  2  0
 19 17  1  0
 20 18  1  0
 21 19  2  0
 22 21  1  0
 22 20  2  0
M  END
>  <SMILES>  (48) 
C(=NNc1cccs1)c1ccc(OCc2ccccc2)nc1

>  <scaffold>  (48) 
thiophene

$$$$

     RDKit          3D

 27 29  0  0  0  0  0  0  0  0999 V2000
    0.0000   -0.0000   -0.0000 C   0  0  0  0  0  0  0  0  0  0  0  0
   -0.0000   -0.0000    1.3625 C   0  0  0  0  0  0  0  0  0  0  0  0
    1.3047   -0.0000    1.9187 C   0  0  0  0  0  0  0  0  0  0  0  0
    1.6065   -0.0000   -0.6499 S   0  0  0  0  0  0  0  0  0  0  0  0
    2.2879    0.0671    0.9206 C   0  0  0  0  0  0  0  0  0  0  0  0
   -1.1590    0.0000   -0.9280 C   0  0  0  0  0  0  0  0  0  0  0  0
   -1.4328   -0.9025   -1.6831 O   0  0  0  0  0  0  0  0  0  0  0  0
   -1.9015    1.1112   -0.7596 N   0  0  0  0  0  0  0  0  0  0  0  0
   -3.1089    1.2718   -1.5331 C   0  0  0  0  0  0  0  0  0  0  0  0
   -4.1862    1.7441   -0.6552 C   0  0  0  0  0  0  0  0  0  0  0  0
   -4.1170    2.6802    0.2357 N   0  0  0  0  0  0  0  0  0  0  0  0
   -5.3891    1.1799   -0.7448 O   0  0  0  0  0  0  0  0  0  0  0  0
   -5.3867    2.7583    0.7238 C   0  0  0  0  0  0  0  0  0  0  0  0
   -6.1536    1.8627    0.1410 N   0  0  0  0  0  0  0  0  0  0  0  0
   -5.8325    3.7477    1.7496 C   0  0  0  0  0  0  0  0  0  0  0  0
   -7.1311    3.5452    2.2146 O   0  0  0  0  0  0  0  0  0  0  0  0
   -7.3853    2.4964    3.0336 C   0  0  0  0  0  0  0  0  0  0  0  0
   -8.7068    2.4319    3.4729 C   0  0  0  0  0  0  0  0  0  0  0  0
   -6.4436    1.5962    3.5299 C   0  0  0  0  0  0  0  0  0  0  0  0
   -9.0794    1.4271    4.3646 C   0  0  0  0  0  0  0  0  0  0  0  0
   -6.8215    0.5911    4.4065 C   0  0  0  0  0  0  0  0  0  0  0  0
   -8.1404    0.5351    4.8588 C   0  0  0  0  0  0  0  0  0  0  0  0
  -10.3975    1.4351    4.6777 O   0  0  0  0  0  0  0  0  0  0  0  0
  -10.8125    0.4678    5.6161 C   0  0  0  0  0  0  0  0  0  0  0  0
  -12.3010    0.7485    5.8160 C   0  0  0  0  0  0  0  0  0  0  0  0
  -12.7893   -0.2435    6.8705 C   0  0  0  0  0  0  0  0  0  0  0  0
  -14.2992   -0.0384    7.0690 C   0  0  0  0  0  0  0  0  0  0  0  0
  2  1  1  0
  3  2  2  0
  4  1  1  0
  5  4  2  0
  5  3  1  0
  6  1  2  0
  7  6  1  0
  8  6  1  0
  9  8  1  0
 10  9  1  0
 11 10  2  0
 12 10  1  0
 13 11  1  0
 14 12  1  0
 14 13  2  0
 15 13  1  0
 16 15  1  0
 17 16  1  0
 18 17  2  0
 19 17  1  0
 20 18  1  0
 21 19  2  0
 22 21  1  0
 22 20  2  0
 23 20  1  0
 24 23  1  0
 25 24  1  0
 26 25  1  0
 27 26  1  0
M  CHG  2   4   1   7  -1
M  END
>  <SMILES>  (49) 
CCCCOc1cccc(OCc2noc(CNC([O-])=C3C=CC=[S+]3)n2)c1

>  <scaffold>  (49) 
thiophene

$$$$

     RDKit          3D

 32 33  0  0  0  0  0  0  0  0999 V2000
    0.0000   -0.0000    0.0000 C   0  0  0  0  0  0  0  0  0  0  0  0
   -0.0000   -0.0000    1.3704 C   0  0  0  0  0  0  0  0  0  0  0  0
    1.2898   -0.0000    1.9202 C   0  0  0  0  0  0  0  0  0  0  0  0
    1.6157   -0.0000   -0.6536 S   0  0  0  0  0  0  0  0  0  0  0  0
    2.2971   -0.0671    0.9169 C   0  0  0  0  0  0  0  0  0  0  0  0
   -1.2481   -0.0000   -0.8042 C   0  0  0  0  0  0  0  0  0  0  0  0
   -2.3691    0.1104   -0.3486 O   0  0  0  0  0  0  0  0  0  0  0  0
   -0.9426   -0.1557   -2.1149 N   0  0  0  0  0  0  0  0  0  0  0  0
   -1.9897   -0.1336   -3.1433 C   0  0  0  0  0  0  0  0  0  0  0  0
   -3.0029   -1.2547   -2.9173 C   0  0  0  0  0  0  0  0  0  0  0  0
   -2.7273    1.2045   -3.1451 C   0  0  0  0  0  0  0  0  0  0  0  0
   -1.1574   -0.4036   -4.3957 C   0  0  0  0  0  0  0  0  0  0  0  0
   -2.1025   -0.5299   -5.9269 S   0  0  0  0  0  0  0  0  0  0  0  0
   -2.5083    1.1367   -6.3758 C   0  0  0  0  0  0  0  0  0  0  0  0
   -1.8356    2.2895   -6.0016 C   0  0  0  0  0  0  0  0  0  0  0  0
   -3.5673    1.2783   -7.2714 C   0  0  0  0  0  0  0  0  0  0  0  0
   -2.2262    3.5525   -6.4688 C   0  0  0  0  0  0  0  0  0  0  0  0
   -3.9354    2.4994   -7.7284 C   0  0  0  0  0  0  0  0  0  0  0  0
   -3.2706    3.6243   -7.3653 C   0  0  0  0  0  0  0  0  0  0  0  0
   -3.8954    5.3189   -7.9872 Br  0  0  0  0  0  0  0  0  0  0  0  0
   -4.9514    2.7616   -8.5360 O   0  0  0  0  0  0  0  0  0  0  0  0
   -5.7268    1.6779   -9.0450 C   0  0  0  0  0  0  0  0  0  0  0  0
   -5.0121    0.9480  -10.1812 C   0  0  0  0  0  0  0  0  0  0  0  0
   -4.6991    1.8655  -11.3622 C   0  0  0  0  0  0  0  0  0  0  0  0
   -3.9382    1.1023  -12.4451 C   0  0  0  0  0  0  0  0  0  0  0  0
   -3.5528    1.9909  -13.6268 C   0  0  0  0  0  0  0  0  0  0  0  0
   -2.8442    1.1702  -14.7032 C   0  0  0  0  0  0  0  0  0  0  0  0
   -2.3887    2.0248  -15.8850 C   0  0  0  0  0  0  0  0  0  0  0  0
   -1.6399    1.1684  -16.9049 C   0  0  0  0  0  0  0  0  0  0  0  0
   -1.2097    1.9668  -18.1345 C   0  0  0  0  0  0  0  0  0  0  0  0
   -0.5152    1.0553  -19.1450 C   0  0  0  0  0  0  0  0  0  0  0  0
   -0.1132    1.7964  -20.4192 C   0  0  0  0  0  0  0  0  0  0  0  0
  2  1  1  0
  3  2  2  0
  4  1  1  0
  5  4  2  0
  5  3  1  0
  6  1  2  0
  7  6  1  0
  8  6  1  0
  9  8  1  0
 10  9  1  0
 11  9  1  0
 12  9  1  0
 13 12  1  0
 14 13  1  0
 15 14  2  0
 16 14  1  0
 17 15  1  0
 18 16  2  0
 19 18  1  0
 19 17  2  0
 20 19  1  0
 21 18  1  0
 22 21  1  0
 23 22  1  0
 24 23  1  0
 25 24  1  0
 26 25  1  0
 27 26  1  0
 28 27  1  0
 29 28  1  0
 30 29  1  0
 31 30  1  0
 32 31  1  0
M  CHG  2   4   1   7  -1
M  END
>  <SMILES>  (50) 
CCCCCCCCCCCOc1cc(SCC(C)(C)NC([O-])=C2C=CC=[S+]2)ccc1Br

>  <scaffold>  (50) 
thiophene

$$$$
