
     RDKit          3D

 29 30  0  0  0  0  0  0  0  0999 V2000
    0.0000    0.0000   -0.0000 C   0  0  0  0  0  0  0  0  0  0  0  0
    0.0000    0.0000    1.3548 C   0  0  0  0  0  0  0  0  0  0  0  0
    1.5960    0.0000    2.0043 S   0  0  0  0  0  0  0  0  0  0  0  0
    1.3073    0.0000   -0.5288 C   0  0  0  0  0  0  0  0  0  0  0  0
    2.3216    0.0498    0.3796 C   0  0  0  0  0  0  0  0  0  0  0  0
    3.6876    0.0093    0.2007 N   0  0  0  0  0  0  0  0  0  0  0  0
    4.6047    0.0149    1.1978 C   0  0  0  0  0  0  0  0  0  0  0  0
    4.1961    0.0587    2.3339 O   0  0  0  0  0  0  0  0  0  0  0  0
    5.9344   -0.0853    0.8191 N   0  0  0  0  0  0  0  0  0  0  0  0
    7.0864   -0.0542    1.5606 C   0  0  0  0  0  0  0  0  0  0  0  0
    6.2042   -0.2343   -0.5082 N   0  0  0  0  0  0  0  0  0  0  0  0
    8.1747   -0.2440    0.7631 C   0  0  0  0  0  0  0  0  0  0  0  0
    7.4933   -0.3411   -0.4686 C   0  0  0  0  0  0  0  0  0  0  0  0
    9.8754   -0.2493    1.0403 Cl  0  0  0  0  0  0  0  0  0  0  0  0
    7.0050    0.1799    3.0245 C   0  0  0  0  0  0  0  0  0  0  0  0
    8.3249   -0.5827   -1.6538 C   0  0  0  0  0  0  0  0  0  0  0  0
    9.5159   -0.7121   -1.4979 O   0  0  0  0  0  0  0  0  0  0  0  0
    7.6878   -0.6365   -2.8220 O   0  0  0  0  0  0  0  0  0  0  0  0
    8.3754   -0.9201   -4.0392 C   0  0  0  0  0  0  0  0  0  0  0  0
    8.6169   -2.4227   -4.1742 C   0  0  0  0  0  0  0  0  0  0  0  0
    9.4012   -2.6669   -5.4624 C   0  0  0  0  0  0  0  0  0  0  0  0
    9.6220   -4.1640   -5.6724 C   0  0  0  0  0  0  0  0  0  0  0  0
   10.4546   -4.3505   -6.9399 C   0  0  0  0  0  0  0  0  0  0  0  0
   10.6579   -5.8377   -7.2252 C   0  0  0  0  0  0  0  0  0  0  0  0
   11.4465   -5.9697   -8.5271 C   0  0  0  0  0  0  0  0  0  0  0  0
   11.6299   -7.4434   -8.8866 C   0  0  0  0  0  0  0  0  0  0  0  0
   12.4680   -7.5215  -10.1617 C   0  0  0  0  0  0  0  0  0  0  0  0
   12.7283   -8.9888  -10.5367 C   0  0  0  0  0  0  0  0  0  0  0  0
   13.6126   -9.0113  -11.7825 C   0  0  0  0  0  0  0  0  0  0  0  0
  2  1  2  0
  3  2  1  0
  4  1  1  0
  5  4  2  0
  5  3  1  0
  6  5  1  0
  7  6  1  0
  8  7  2  0
  9  7  1  0
 10  9  1  0
 11  9  1  0
 12 10  2  0
 13 12  1  0
 13 11  2  0
 14 12  1  0
 15 10  1  0
 16 13  1  0
 17 16  2  0
 18 16  1  0
 19 18  1  0
 20 19  1  0
 21 20  1  0
 22 21  1  0
 23 22  1  0
 24 23  1  0
 25 24  1  0
 26 25  1  0
 27 26  1  0
 28 27  1  0
 29 28  1  0
M  END
>  <SMILES>  (1) 
CCCCCCCCCCCOC(=O)c1nn(C(=O)Nc2cccs2)c(C)c1Cl

>  <scaffold>  (1) 
thiophene

$$$$

     RDKit          3D

 30 32  0  0  0  0  0  0  0  0999 V2000
   -0.0000    0.0000    0.0000 C   0  0  0  0  0  0  0  0  0  0  0  0
   -0.0000    0.0000    1.3625 C   0  0  0  0  0  0  0  0  0  0  0  0
    1.5868   -0.0000    2.0084 S   0  0  0  0  0  0  0  0  0  0  0  0
    1.3073    0.0000   -0.5288 C   0  0  0  0  0  0  0  0  0  0  0  0
    2.3274   -0.0501    0.3848 C   0  0  0  0  0  0  0  0  0  0  0  0
    3.7702   -0.0039    0.1188 C   0  0  0  0  0  0  0  0  0  0  0  0
    4.1828    0.0892   -1.0204 O   0  0  0  0  0  0  0  0  0  0  0  0
    4.5880   -0.1256    1.2116 N   0  0  0  0  0  0  0  0  0  0  0  0
    5.9290   -0.1501    1.0864 N   0  0  0  0  0  0  0  0  0  0  0  0
    6.6515   -0.2188    2.1311 C   0  0  0  0  0  0  0  0  0  0  0  0
    8.0838   -0.1959    2.0520 C   0  0  0  0  0  0  0  0  0  0  0  0
    8.8369   -0.2236    3.2344 C   0  0  0  0  0  0  0  0  0  0  0  0
    8.7330   -0.0985    0.8402 C   0  0  0  0  0  0  0  0  0  0  0  0
   10.2210   -0.1531    3.2095 C   0  0  0  0  0  0  0  0  0  0  0  0
   10.1173   -0.0301    0.8173 C   0  0  0  0  0  0  0  0  0  0  0  0
   10.8649   -0.1120    1.9737 C   0  0  0  0  0  0  0  0  0  0  0  0
    8.1057   -0.3256    4.3795 O   0  0  0  0  0  0  0  0  0  0  0  0
    8.8126   -0.3067    5.5902 C   0  0  0  0  0  0  0  0  0  0  0  0
    9.6495   -1.5558    5.8618 C   0  0  0  0  0  0  0  0  0  0  0  0
   10.5506   -1.5242    6.6764 O   0  0  0  0  0  0  0  0  0  0  0  0
    9.2573   -2.6541    5.2032 N   0  0  0  0  0  0  0  0  0  0  0  0
    9.8808   -3.9449    5.3670 C   0  0  0  0  0  0  0  0  0  0  0  0
    8.8223   -4.9889    5.6788 C   0  0  0  0  0  0  0  0  0  0  0  0
    7.6288   -5.2257    4.2910 S   0  0  0  0  0  0  0  0  0  0  0  0
    6.0409   -5.3027    5.0762 C   0  0  0  0  0  0  0  0  0  0  0  0
    5.7646   -6.2138    6.0836 C   0  0  0  0  0  0  0  0  0  0  0  0
    5.0650   -4.4078    4.6935 C   0  0  0  0  0  0  0  0  0  0  0  0
    4.4934   -6.2698    6.6334 C   0  0  0  0  0  0  0  0  0  0  0  0
    3.8010   -4.4615    5.2403 C   0  0  0  0  0  0  0  0  0  0  0  0
    3.4852   -5.4578    6.1377 C   0  0  0  0  0  0  0  0  0  0  0  0
  2  1  1  0
  3  2  2  0
  4  1  2  0
  5  4  1  0
  5  3  1  0
  6  5  2  0
  7  6  1  0
  8  6  1  0
  9  8  1  0
 10  9  2  0
 11 10  1  0
 12 11  1  0
 13 11  2  0
 14 12  2  0
 15 13  1  0
 16 15  2  0
 16 14  1  0
 17 12  1  0
 18 17  1  0
 19 18  1  0
 20 19  2  0
 21 19  1  0
 22 21  1  0
 23 22  1  0
 24 23  1  0
 25 24  1  0
 26 25  2  0
 27 25  1  0
 28 26  1  0
 29 27  2  0
 30 29  1  0
 30 28  2  0
M  CHG  2   3   1   7  -1
M  END
>  <SMILES>  (2) 
O=C(COc1ccccc1C=NNC([O-])=C1C=CC=[S+]1)NCCSc1ccccc1

>  <scaffold>  (2) 
thiophene

$$$$

     RDKit          3D

 30 32  0  0  0  0  0  0  0  0999 V2000
   -0.0000   -0.0000    0.0000 C   0  0  0  0  0  0  0  0  0  0  0  0
   -0.0000   -0.0000    1.3625 C   0  0  0  0  0  0  0  0  0  0  0  0
    1.3047   -0.0000    1.9187 C   0  0  0  0  0  0  0  0  0  0  0  0
    1.6065    0.0000   -0.6499 S   0  0  0  0  0  0  0  0  0  0  0  0
    2.2879    0.0671    0.9206 C   0  0  0  0  0  0  0  0  0  0  0  0
   -1.1601   -0.1143   -0.9333 C   0  0  0  0  0  0  0  0  0  0  0  0
   -2.3887    0.3947   -0.3953 N   0  0  0  0  0  0  0  0  0  0  0  0
   -2.8070    1.6800   -0.3038 C   0  0  0  0  0  0  0  0  0  0  0  0
   -3.2109   -0.4056    0.2807 N   0  0  0  0  0  0  0  0  0  0  0  0
   -4.0156    1.6930    0.3250 C   0  0  0  0  0  0  0  0  0  0  0  0
   -4.2185    0.3650    0.6860 C   0  0  0  0  0  0  0  0  0  0  0  0
   -5.3353   -0.2101    1.4125 C   0  0  0  0  0  0  0  0  0  0  0  0
   -6.3874    0.5639    1.8999 C   0  0  0  0  0  0  0  0  0  0  0  0
   -5.3770   -1.5780    1.6326 C   0  0  0  0  0  0  0  0  0  0  0  0
   -7.4511   -0.0332    2.5414 C   0  0  0  0  0  0  0  0  0  0  0  0
   -6.4470   -2.1783    2.2776 C   0  0  0  0  0  0  0  0  0  0  0  0
   -7.5295   -1.4040    2.7318 C   0  0  0  0  0  0  0  0  0  0  0  0
   -6.4110   -4.0915    2.6160 Br  0  0  0  0  0  0  0  0  0  0  0  0
   -8.5822   -2.0422    3.3157 O   0  0  0  0  0  0  0  0  0  0  0  0
   -9.6652   -1.2690    3.7576 C   0  0  0  0  0  0  0  0  0  0  0  0
   -9.3552   -0.3096    4.9172 C   0  0  0  0  0  0  0  0  0  0  0  0
  -10.0053    0.6627    5.1911 O   0  0  0  0  0  0  0  0  0  0  0  0
   -8.2868   -0.7265    5.6090 O   0  0  0  0  0  0  0  0  0  0  0  0
   -7.9314    0.0486    6.7422 C   0  0  0  0  0  0  0  0  0  0  0  0
   -8.8238   -0.2352    7.9494 C   0  0  0  0  0  0  0  0  0  0  0  0
   -8.3086    0.5175    9.1752 C   0  0  0  0  0  0  0  0  0  0  0  0
   -9.1366    0.2235   10.4251 C   0  0  0  0  0  0  0  0  0  0  0  0
   -8.6155    1.0401   11.6066 C   0  0  0  0  0  0  0  0  0  0  0  0
   -9.3770    0.7409   12.8969 C   0  0  0  0  0  0  0  0  0  0  0  0
   -8.7832    1.5400   14.0559 C   0  0  0  0  0  0  0  0  0  0  0  0
  2  1  2  0
  3  2  1  0
  4  1  1  0
  5  4  1  0
  5  3  2  0
  6  1  1  0
  7  6  1  0
  8  7  1  0
  9  7  1  0
 10  8  2  0
 11 10  1  0
 11  9  2  0
 12 11  1  0
 13 12  2  0
 14 12  1  0
 15 13  1  0
 16 14  2  0
 17 16  1  0
 17 15  2  0
 18 16  1  0
 19 17  1  0
 20 19  1  0
 21 20  1  0
 22 21  2  0
 23 21  1  0
 24 23  1  0
 25 24  1  0
 26 25  1  0
 27 26  1  0
 28 27  1  0
 29 28  1  0
 30 29  1  0
M  END
>  <SMILES>  (3) 
CCCCCCCOC(=O)COc1ccc(-c2ccn(Cc3cccs3)n2)cc1Br

>  <scaffold>  (3) 
thiophene

$$$$

     RDKit          3D

 17 18  0  0  0  0  0  0  0  0999 V2000
    0.0000   -0.0000   -0.0000 C   0  0  0  0  0  0  0  0  0  0  0  0
    0.0000   -0.0000    1.3704 C   0  0  0  0  0  0  0  0  0  0  0  0
    1.2879   -0.0000    1.9446 C   0  0  0  0  0  0  0  0  0  0  0  0
    1.6413    0.0806   -0.5810 S   0  0  0  0  0  0  0  0  0  0  0  0
    2.3251    0.0470    0.9895 C   0  0  0  0  0  0  0  0  0  0  0  0
   -1.1976    0.0588   -0.8612 C   0  0  0  0  0  0  0  0  0  0  0  0
   -2.2138    0.6020   -0.4538 O   0  0  0  0  0  0  0  0  0  0  0  0
   -1.0661   -0.4664   -2.1030 N   0  0  0  0  0  0  0  0  0  0  0  0
    1.5578   -0.0537    3.2712 O   0  0  0  0  0  0  0  0  0  0  0  0
    0.5847   -0.4886    4.1698 C   0  0  0  0  0  0  0  0  0  0  0  0
    0.0149   -1.7492    3.9974 C   0  0  0  0  0  0  0  0  0  0  0  0
    0.3527    0.2712    5.2961 C   0  0  0  0  0  0  0  0  0  0  0  0
   -0.9066   -2.1556    4.9383 C   0  0  0  0  0  0  0  0  0  0  0  0
   -0.5646   -0.1448    6.2369 C   0  0  0  0  0  0  0  0  0  0  0  0
   -1.2317   -1.3909    6.0577 C   0  0  0  0  0  0  0  0  0  0  0  0
   -2.2075   -1.8806    6.8989 O   0  0  0  0  0  0  0  0  0  0  0  0
   -2.7698   -1.0168    7.8850 C   0  0  0  0  0  0  0  0  0  0  0  0
  2  1  1  0
  3  2  2  0
  4  1  1  0
  5  4  2  0
  5  3  1  0
  6  1  2  0
  7  6  1  0
  8  6  1  0
  9  3  1  0
 10  9  1  0
 11 10  2  0
 12 10  1  0
 13 11  1  0
 14 12  2  0
 15 13  2  0
 15 14  1  0
 16 15  1  0
 17 16  1  0
M  CHG  2   4   1   7  -1
M  END
>  <SMILES>  (4) 
COc1ccc(OC2=CC(=C(N)[O-])[S+]=C2)cc1

>  <scaffold>  (4) 
thiophene

$$$$

     RDKit          3D

 27 28  0  0  0  0  0  0  0  0999 V2000
    0.0000   -0.0000   -0.0000 C   0  0  0  0  0  0  0  0  0  0  0  0
   -0.0000    0.0000    1.3704 C   0  0  0  0  0  0  0  0  0  0  0  0
    1.3212    0.0000    1.9081 C   0  0  0  0  0  0  0  0  0  0  0  0
    1.5973    0.0000   -0.6462 S   0  0  0  0  0  0  0  0  0  0  0  0
    2.2905    0.0683    0.9515 C   0  0  0  0  0  0  0  0  0  0  0  0
   -1.0759   -0.0000   -0.8614 N   0  0  0  0  0  0  0  0  0  0  0  0
   -1.1719    0.0576    2.0478 O   0  0  0  0  0  0  0  0  0  0  0  0
    1.5256    0.0548    3.2780 N   0  0  0  0  0  0  0  0  0  0  0  0
    3.7606    0.1543    1.1417 C   0  0  0  0  0  0  0  0  0  0  0  0
   -0.9483   -0.0528   -2.2091 C   0  0  0  0  0  0  0  0  0  0  0  0
    0.1373   -0.0502   -2.7550 O   0  0  0  0  0  0  0  0  0  0  0  0
   -2.1198   -0.0927   -2.8084 O   0  0  0  0  0  0  0  0  0  0  0  0
   -2.1192   -0.2047   -4.2142 C   0  0  0  0  0  0  0  0  0  0  0  0
   -1.5772   -1.3170   -4.8211 C   0  0  0  0  0  0  0  0  0  0  0  0
   -2.7100    0.8454   -4.9156 C   0  0  0  0  0  0  0  0  0  0  0  0
   -1.6446   -1.4062   -6.2188 C   0  0  0  0  0  0  0  0  0  0  0  0
   -2.7771    0.7559   -6.2972 C   0  0  0  0  0  0  0  0  0  0  0  0
   -2.2901   -0.4381   -6.9867 C   0  0  0  0  0  0  0  0  0  0  0  0
   -1.0566   -2.4929   -6.7745 N   0  0  0  0  0  0  0  0  0  0  0  0
   -1.1412   -2.8746   -8.1633 C   0  0  2  0  0  0  0  0  0  0  0  0
   -2.5177   -3.4627   -8.4699 C   0  0  0  0  0  0  0  0  0  0  0  0
   -0.0369   -3.9047   -8.3947 C   0  0  0  0  0  0  0  0  0  0  0  0
    1.3769   -3.3471   -8.2373 C   0  0  0  0  0  0  0  0  0  0  0  0
    2.4409   -4.4275   -8.4248 C   0  0  0  0  0  0  0  0  0  0  0  0
    3.8720   -3.9317   -8.2232 C   0  0  0  0  0  0  0  0  0  0  0  0
    4.8919   -5.0601   -8.3679 C   0  0  0  0  0  0  0  0  0  0  0  0
    6.3361   -4.6265   -8.1211 C   0  0  0  0  0  0  0  0  0  0  0  0
  2  1  2  0
  3  2  1  0
  4  1  1  0
  5  4  1  0
  5  3  2  0
  6  1  1  0
  7  2  1  0
  8  3  1  0
  9  5  1  0
 10  6  2  0
 11 10  1  0
 12 10  1  0
 13 12  1  0
 14 13  2  0
 15 13  1  0
 16 14  1  0
 17 15  2  0
 18 17  1  0
 18 16  1  0
 19 16  2  0
 20 19  1  0
 20 21  1  1
 22 20  1  0
 23 22  1  0
 24 23  1  0
 25 24  1  0
 26 25  1  0
 27 26  1  0
M  CHG  2  11  -1  19   1
M  END
>  <SMILES>  (5) 
CCCCCCC(C)[NH+]=C1C=C(OC([O-])=Nc2sc(C)c(N)c2O)C=CC1

>  <scaffold>  (5) 
thiophene

$$$$

     RDKit          3D

 19 20  0  0  0  0  0  0  0  0999 V2000
   -0.0000   -0.0000    0.0000 C   0  0  0  0  0  0  0  0  0  0  0  0
    0.0000   -0.0000    1.3625 C   0  0  0  0  0  0  0  0  0  0  0  0
    1.5868   -0.0000    2.0084 S   0  0  0  0  0  0  0  0  0  0  0  0
    1.2998   -0.0000   -0.5258 C   0  0  0  0  0  0  0  0  0  0  0  0
    2.3200    0.0501    0.3878 C   0  0  0  0  0  0  0  0  0  0  0  0
    3.7730    0.1231    0.1929 C   0  0  0  0  0  0  0  0  0  0  0  0
    4.1814    0.1448   -0.9439 O   0  0  0  0  0  0  0  0  0  0  0  0
    4.5829    0.2166    1.2847 N   0  0  0  0  0  0  0  0  0  0  0  0
    5.9784    0.3512    1.3030 N   0  0  0  0  0  0  0  0  0  0  0  0
    6.6454   -0.9211    1.6040 C   0  0  0  0  0  0  0  0  0  0  0  0
    8.1233   -0.7518    1.4735 C   0  0  0  0  0  0  0  0  0  0  0  0
    8.9296   -0.7199    0.3756 C   0  0  0  0  0  0  0  0  0  0  0  0
    8.8740   -0.6137    2.5834 O   0  0  0  0  0  0  0  0  0  0  0  0
   10.2441   -0.4755    0.8955 C   0  0  0  0  0  0  0  0  0  0  0  0
   10.1586   -0.4246    2.1966 C   0  0  0  0  0  0  0  0  0  0  0  0
   11.2191   -0.3000    3.2282 C   0  0  0  0  0  0  0  0  0  0  0  0
   11.4043   -0.3015    0.2025 O   0  0  0  0  0  0  0  0  0  0  0  0
    8.5782   -0.9176   -1.0446 C   0  0  0  0  0  0  0  0  0  0  0  0
    7.7604   -1.7608   -1.3555 O   0  0  0  0  0  0  0  0  0  0  0  0
  2  1  1  0
  3  2  2  0
  4  1  2  0
  5  4  1  0
  5  3  1  0
  6  5  2  0
  7  6  1  0
  8  6  1  0
  9  8  1  0
 10  9  1  0
 11 10  1  0
 12 11  2  0
 13 11  1  0
 14 12  1  0
 15 14  2  0
 15 13  1  0
 16 15  1  0
 17 14  1  0
 18 12  1  0
 19 18  2  0
M  CHG  2   3   1   7  -1
M  END
>  <SMILES>  (6) 
Cc1oc(CNNC([O-])=C2C=CC=[S+]2)c(C=O)c1O

>  <scaffold>  (6) 
thiophene

$$$$

     RDKit          3D

 20 21  0  0  0  0  0  0  0  0999 V2000
   -0.0000   -0.0000   -0.0000 S   0  0  0  0  0  0  0  0  0  0  0  0
    0.0000   -0.0000    1.7231 C   0  0  0  0  0  0  0  0  0  0  0  0
    1.2548    0.0000    2.2338 C   0  0  0  0  0  0  0  0  0  0  0  0
    1.7118    0.0000   -0.0714 C   0  0  0  0  0  0  0  0  0  0  0  0
    2.2537   -0.0534    1.1776 C   0  0  0  0  0  0  0  0  0  0  0  0
    3.7127   -0.0100    1.4925 C   0  0  0  0  0  0  0  0  0  0  0  0
    4.0936    0.4278    2.5681 O   0  0  0  0  0  0  0  0  0  0  0  0
    4.5464   -0.5071    0.5585 N   0  0  0  0  0  0  0  0  0  0  0  0
    5.9867   -0.4230    0.5728 C   0  0  1  0  0  0  0  0  0  0  0  0
    6.6319   -1.8065    0.5079 C   0  0  0  0  0  0  0  0  0  0  0  0
    6.4450    0.4496   -0.5717 C   0  0  0  0  0  0  0  0  0  0  0  0
    6.1260    0.1611   -1.8978 C   0  0  0  0  0  0  0  0  0  0  0  0
    7.1942    1.6132   -0.3465 C   0  0  0  0  0  0  0  0  0  0  0  0
    6.4813    0.9578   -2.9750 C   0  0  0  0  0  0  0  0  0  0  0  0
    7.5500    2.4085   -1.4246 C   0  0  0  0  0  0  0  0  0  0  0  0
    7.1957    2.1115   -2.7338 C   0  0  0  0  0  0  0  0  0  0  0  0
    7.5601    1.9230    0.9457 O   0  0  0  0  0  0  0  0  0  0  0  0
    8.2743    3.1151    1.2291 C   0  0  0  0  0  0  0  0  0  0  0  0
    8.4889    3.2241    2.7379 C   0  0  0  0  0  0  0  0  0  0  0  0
    9.3333    4.7478    3.1647 S   0  0  0  0  0  0  0  0  0  0  0  0
  2  1  1  0
  3  2  2  0
  4  1  2  0
  5  4  1  0
  5  3  1  0
  6  5  2  0
  7  6  1  0
  8  6  1  0
  9  8  1  0
  9 10  1  6
 11  9  1  0
 12 11  2  0
 13 11  1  0
 14 12  1  0
 15 13  2  0
 16 15  1  0
 16 14  2  0
 17 13  1  0
 18 17  1  0
 19 18  1  0
 20 19  1  0
M  CHG  2   1   1   7  -1
M  END
>  <SMILES>  (7) 
CC(NC([O-])=C1C=C[S+]=C1)c1ccccc1OCCS

>  <scaffold>  (7) 
thiophene

$$$$

     RDKit          3D

 19 19  0  0  0  0  0  0  0  0999 V2000
    0.0000    0.0000   -0.0000 C   0  0  0  0  0  0  0  0  0  0  0  0
   -0.0000   -0.0000    1.3548 C   0  0  0  0  0  0  0  0  0  0  0  0
    1.5960   -0.0000    2.0043 S   0  0  0  0  0  0  0  0  0  0  0  0
    1.3148   -0.0000   -0.5319 C   0  0  0  0  0  0  0  0  0  0  0  0
    2.3291    0.0498    0.3765 C   0  0  0  0  0  0  0  0  0  0  0  0
    3.7010    0.1211    0.2648 N   0  0  0  0  0  0  0  0  0  0  0  0
    4.3768    0.1594   -0.9177 C   0  0  0  0  0  0  0  0  0  0  0  0
    3.9323    0.1396   -2.0410 O   0  0  0  0  0  0  0  0  0  0  0  0
    5.8580    0.1749   -0.5810 C   0  0  1  0  0  0  0  0  0  0  0  0
    6.3089    1.4341    0.1575 C   0  0  0  0  0  0  0  0  0  0  0  0
    6.3489   -1.1026    0.0982 C   0  0  0  0  0  0  0  0  0  0  0  0
   -1.1258   -0.0000   -0.7255 F   0  0  0  0  0  0  0  0  0  0  0  0
    6.0233    2.6962   -0.6548 C   0  0  0  0  0  0  0  0  0  0  0  0
    6.5407    3.9189    0.1013 C   0  0  0  0  0  0  0  0  0  0  0  0
    6.2301    5.2152   -0.6456 C   0  0  0  0  0  0  0  0  0  0  0  0
    6.7183    6.4073    0.1760 C   0  0  0  0  0  0  0  0  0  0  0  0
    6.3818    7.7336   -0.5037 C   0  0  0  0  0  0  0  0  0  0  0  0
    6.8437    8.8978    0.3865 C   0  0  0  0  0  0  0  0  0  0  0  0
    6.4804   10.2501   -0.2247 C   0  0  0  0  0  0  0  0  0  0  0  0
  2  1  2  0
  3  2  1  0
  4  1  1  0
  5  4  2  0
  5  3  1  0
  6  5  1  0
  7  6  1  0
  8  7  2  0
  9  7  1  0
 10  9  1  0
  9 11  1  1
 12  1  1  0
 13 10  1  0
 14 13  1  0
 15 14  1  0
 16 15  1  0
 17 16  1  0
 18 17  1  0
 19 18  1  0
M  END
>  <SMILES>  (8) 
CCCCCCCCC(C)C(=O)Nc1cc(F)cs1

>  <scaffold>  (8) 
thiophene

$$$$

     RDKit          3D

 23 25  0  0  0  0  0  0  0  0999 V2000
    0.0000    0.0000   -0.0000 C   0  0  0  0  0  0  0  0  0  0  0  0
   -0.0000   -0.0000    1.3548 C   0  0  0  0  0  0  0  0  0  0  0  0
    1.5960    0.0000    2.0043 S   0  0  0  0  0  0  0  0  0  0  0  0
    1.3073   -0.0000   -0.5288 C   0  0  0  0  0  0  0  0  0  0  0  0
    2.2695    0.0504    0.4345 C   0  0  0  0  0  0  0  0  0  0  0  0
    3.6338    0.1188    0.2516 N   0  0  0  0  0  0  0  0  0  0  0  0
    4.4929    0.2171    1.2946 C   0  0  0  0  0  0  0  0  0  0  0  0
    4.0796    0.2486    2.4443 O   0  0  0  0  0  0  0  0  0  0  0  0
    5.9418    0.3412    0.9554 C   0  0  0  0  0  0  0  0  0  0  0  0
    6.5754   -0.1242   -0.2056 C   0  0  0  0  0  0  0  0  0  0  0  0
    6.6834    0.9176    1.9856 C   0  0  0  0  0  0  0  0  0  0  0  0
    7.9364    0.0046   -0.3807 C   0  0  0  0  0  0  0  0  0  0  0  0
    8.0532    1.0371    1.8100 C   0  0  0  0  0  0  0  0  0  0  0  0
    8.7347    0.5995    0.5838 C   0  0  0  0  0  0  0  0  0  0  0  0
   10.4493    0.8461    0.3915 S   0  0  0  0  0  0  0  0  0  0  0  0
   10.8157    0.2401   -1.2563 C   0  0  0  0  0  0  0  0  0  0  0  0
   10.5760    1.0481   -2.3568 C   0  0  0  0  0  0  0  0  0  0  0  0
   11.4479   -0.9872   -1.3806 C   0  0  0  0  0  0  0  0  0  0  0  0
   10.9209    0.5556   -3.6058 C   0  0  0  0  0  0  0  0  0  0  0  0
   11.7896   -1.4650   -2.6100 C   0  0  0  0  0  0  0  0  0  0  0  0
   11.5439   -0.6805   -3.7711 C   0  0  0  0  0  0  0  0  0  0  0  0
   11.9690   -1.2348   -4.9139 O   0  0  0  0  0  0  0  0  0  0  0  0
   11.7212   -0.5319   -6.1205 C   0  0  0  0  0  0  0  0  0  0  0  0
  2  1  2  0
  3  2  1  0
  4  1  1  0
  5  4  2  0
  5  3  1  0
  6  5  1  0
  7  6  1  0
  8  7  2  0
  9  7  1  0
 10  9  2  0
 11  9  1  0
 12 10  1  0
 13 11  2  0
 14 13  1  0
 14 12  2  0
 15 14  1  0
 16 15  1  0
 17 16  2  0
 18 16  1  0
 19 17  1  0
 20 18  2  0
 21 19  2  0
 21 20  1  0
 22 21  1  0
 23 22  1  0
M  END
>  <SMILES>  (9) 
COc1ccc(Sc2ccc(C(=O)Nc3cccs3)cc2)cc1

>  <scaffold>  (9) 
thiophene

$$$$

     RDKit          3D

 25 27  0  0  0  0  0  0  0  0999 V2000
    0.0000    0.0000    0.0000 C   0  0  0  0  0  0  0  0  0  0  0  0
    0.0000    0.0000    1.3704 C   0  0  0  0  0  0  0  0  0  0  0  0
    1.2898    0.0000    1.9202 C   0  0  0  0  0  0  0  0  0  0  0  0
    1.6065    0.0000   -0.6499 S   0  0  0  0  0  0  0  0  0  0  0  0
    2.2879    0.0671    0.9206 C   0  0  0  0  0  0  0  0  0  0  0  0
   -1.1772    0.0578   -0.8465 C   0  0  0  0  0  0  0  0  0  0  0  0
   -2.3173    0.1701   -0.4415 O   0  0  0  0  0  0  0  0  0  0  0  0
   -0.8416   -0.0124   -2.1572 O   0  0  0  0  0  0  0  0  0  0  0  0
   -1.7900    0.1799   -3.1386 C   0  0  0  0  0  0  0  0  0  0  0  0
   -3.0289   -0.3648   -3.0765 C   0  0  0  0  0  0  0  0  0  0  0  0
   -1.3909    0.9390   -4.2681 C   0  0  0  0  0  0  0  0  0  0  0  0
   -3.9122   -0.1880   -4.0885 N   0  0  0  0  0  0  0  0  0  0  0  0
   -2.2749    1.1126   -5.2800 C   0  0  0  0  0  0  0  0  0  0  0  0
   -3.5957    0.5518   -5.2270 C   0  0  0  0  0  0  0  0  0  0  0  0
   -4.4315    0.7226   -6.0923 O   0  0  0  0  0  0  0  0  0  0  0  0
   -1.9564    1.8660   -6.3503 F   0  0  0  0  0  0  0  0  0  0  0  0
   -5.2009   -0.8307   -3.9990 C   0  0  0  0  0  0  0  0  0  0  0  0
   -5.2210   -2.2973   -4.3214 C   0  0  0  0  0  0  0  0  0  0  0  0
   -4.1762   -2.9783   -4.7191 C   0  0  0  0  0  0  0  0  0  0  0  0
   -4.0504   -4.3872   -5.0038 C   0  0  0  0  0  0  0  0  0  0  0  0
   -2.8243   -4.9413   -5.3689 C   0  0  0  0  0  0  0  0  0  0  0  0
   -5.1560   -5.2332   -4.9303 C   0  0  0  0  0  0  0  0  0  0  0  0
   -2.6476   -6.2726   -5.5993 C   0  0  0  0  0  0  0  0  0  0  0  0
   -4.9776   -6.5799   -5.1629 C   0  0  0  0  0  0  0  0  0  0  0  0
   -3.7291   -7.1428   -5.4703 C   0  0  0  0  0  0  0  0  0  0  0  0
  2  1  1  0
  3  2  2  0
  4  1  1  0
  5  4  2  0
  5  3  1  0
  6  1  2  0
  7  6  1  0
  8  6  1  0
  9  8  1  0
 10  9  2  0
 11  9  1  0
 12 10  1  0
 13 11  2  0
 14 13  1  0
 14 12  1  0
 15 14  2  0
 16 13  1  0
 17 12  1  0
 18 17  1  0
 19 18  2  0
 20 19  1  0
 21 20  2  0
 22 20  1  0
 23 21  1  0
 24 22  2  0
 25 23  2  0
 25 24  1  0
M  CHG  2   4   1   7  -1
M  END
>  <SMILES>  (10) 
O=c1c(F)cc(OC([O-])=C2C=CC=[S+]2)cn1CC=Cc1ccccc1

>  <scaffold>  (10) 
thiophene

$$$$

     RDKit          3D

 11 12  0  0  0  0  0  0  0  0999 V2000
    0.0000   -0.0000   -0.0000 C   0  0  0  0  0  0  0  0  0  0  0  0
   -0.0000   -0.0000    1.3625 C   0  0  0  0  0  0  0  0  0  0  0  0
    1.5868    0.0000    2.0084 S   0  0  0  0  0  0  0  0  0  0  0  0
    1.3073    0.0000   -0.5288 C   0  0  0  0  0  0  0  0  0  0  0  0
    2.3274    0.0501    0.3848 C   0  0  0  0  0  0  0  0  0  0  0  0
    3.7575    0.0077    0.1975 C   0  0  0  0  0  0  0  0  0  0  0  0
    4.1457   -0.1545   -1.0500 N   0  0  0  0  0  0  0  0  0  0  0  0
    4.7197    0.1238    1.2329 C   0  0  0  0  0  0  0  0  0  0  0  0
    5.4048   -0.2573   -1.3306 N   0  0  0  0  0  0  0  0  0  0  0  0
    6.0455    0.0158    0.9373 C   0  0  0  0  0  0  0  0  0  0  0  0
    6.3430   -0.2067   -0.4084 C   0  0  0  0  0  0  0  0  0  0  0  0
  2  1  2  0
  3  2  1  0
  4  1  1  0
  5  4  2  0
  5  3  1  0
  6  5  1  0
  7  6  2  0
  8  6  1  0
  9  7  1  0
 10  8  2  0
 11  9  2  0
 11 10  1  0
M  END
>  <SMILES>  (11) 
c1cnnc(-c2cccs2)c1

>  <scaffold>  (11) 
thiophene

$$$$

     RDKit          3D

 27 29  0  0  0  0  0  0  0  0999 V2000
   -0.0000   -0.0000    0.0000 C   0  0  0  0  0  0  0  0  0  0  0  0
    0.0000    0.0000    1.3704 C   0  0  0  0  0  0  0  0  0  0  0  0
    1.3122    0.0000    1.9298 C   0  0  0  0  0  0  0  0  0  0  0  0
    1.6157   -0.0000   -0.6536 S   0  0  0  0  0  0  0  0  0  0  0  0
    2.3089   -0.0683    0.9441 C   0  0  0  0  0  0  0  0  0  0  0  0
    3.6467   -0.1522    1.2649 C   0  0  0  0  0  0  0  0  0  0  0  0
    4.0035   -0.1418    2.5880 C   0  0  0  0  0  0  0  0  0  0  0  0
    3.0584    0.0092    3.5907 C   0  0  0  0  0  0  0  0  0  0  0  0
    1.7199    0.1550    3.2963 C   0  0  0  0  0  0  0  0  0  0  0  0
   -1.1393    0.0000   -0.9122 C   0  0  0  0  0  0  0  0  0  0  0  0
   -2.2960    0.1139   -0.5578 O   0  0  0  0  0  0  0  0  0  0  0  0
   -0.7584   -0.1578   -2.2108 O   0  0  0  0  0  0  0  0  0  0  0  0
   -1.2624   -0.0000    2.1839 C   0  0  0  0  0  0  0  0  0  0  0  0
    5.7515   -0.1841    3.0716 S   0  0  0  0  0  6  0  0  0  0  0  0
    6.4643   -0.7563    1.9445 O   0  0  0  0  0  0  0  0  0  0  0  0
    5.9078   -0.7882    4.3634 O   0  0  0  0  0  0  0  0  0  0  0  0
    6.1318    1.5684    3.2666 C   0  0  0  0  0  0  0  0  0  0  0  0
    6.2648    2.0520    4.5419 C   0  0  0  0  0  0  0  0  0  0  0  0
    6.2294    2.3329    2.1145 C   0  0  0  0  0  0  0  0  0  0  0  0
    6.5091    3.4097    4.7435 C   0  0  0  0  0  0  0  0  0  0  0  0
    6.4739    3.6823    2.3165 C   0  0  0  0  0  0  0  0  0  0  0  0
    6.6075    4.2210    3.6141 C   0  0  0  0  0  0  0  0  0  0  0  0
    6.5702    3.7834    6.0687 O   0  0  0  0  0  0  0  0  0  0  0  0
    7.7507    4.4936    6.4691 C   0  0  0  0  0  0  0  0  0  0  0  0
    8.9422    3.6077    6.4710 C   0  0  0  0  0  0  0  0  0  0  0  0
    9.5614    3.1915    7.5833 C   0  0  0  0  0  0  0  0  0  0  0  0
   10.6877    2.2914    7.6388 C   0  0  0  0  0  0  0  0  0  0  0  0
  2  1  1  0
  3  2  2  0
  4  1  1  0
  5  4  2  0
  5  3  1  0
  6  5  1  0
  7  6  2  0
  8  7  1  0
  9  8  2  0
  9  3  1  0
 10  1  2  0
 11 10  1  0
 12 10  1  0
 13  2  1  0
 14  7  1  0
 15 14  2  0
 16 14  2  0
 17 14  1  0
 18 17  2  0
 19 17  1  0
 20 18  1  0
 21 19  2  0
 22 21  1  0
 22 20  2  0
 23 20  1  0
 24 23  1  0
 25 24  1  0
 26 25  2  0
 27 26  1  0
M  CHG  2   4   1  11  -1
M  END
>  <SMILES>  (12) 
CC=CCOc1cccc(S(=O)(=O)c2ccc3c(c2)=[S+]C(=C([O-])O)C=3C)c1

>  <scaffold>  (12) 
thiophene

$$$$

     RDKit          3D

 27 29  0  0  0  0  0  0  0  0999 V2000
   -0.0000    0.0000   -0.0000 C   0  0  0  0  0  0  0  0  0  0  0  0
   -0.0000    0.0000    1.3782 C   0  0  0  0  0  0  0  0  0  0  0  0
    1.3298   -0.0000    1.8942 C   0  0  0  0  0  0  0  0  0  0  0  0
    1.6250    0.0000   -0.6574 S   0  0  0  0  0  0  0  0  0  0  0  0
    2.3064    0.0671    0.9131 C   0  0  0  0  0  0  0  0  0  0  0  0
   -1.2552    0.0000    2.1871 C   0  0  0  0  0  0  0  0  0  0  0  0
   -1.1908    0.0585   -0.8562 C   0  0  0  0  0  0  0  0  0  0  0  0
   -2.3339    0.2859   -0.4442 O   0  0  0  0  0  0  0  0  0  0  0  0
    3.6289    0.1472    1.1562 N   0  0  0  0  0  0  0  0  0  0  0  0
   -0.8916   -0.1129   -2.1744 N   0  0  0  0  0  0  0  0  0  0  0  0
    1.6763    0.0549    3.2352 N   0  0  0  0  0  0  0  0  0  0  0  0
    1.0922    0.9020    4.1165 C   0  0  0  0  0  0  0  0  0  0  0  0
    0.2949    1.7682    3.8161 O   0  0  0  0  0  0  0  0  0  0  0  0
   -1.7798   -0.0578   -3.2476 C   0  0  0  0  0  0  0  0  0  0  0  0
   -3.1425    0.1836   -3.1704 C   0  0  0  0  0  0  0  0  0  0  0  0
   -1.2039   -0.2153   -4.5074 C   0  0  0  0  0  0  0  0  0  0  0  0
   -3.9137    0.2668   -4.3192 C   0  0  0  0  0  0  0  0  0  0  0  0
   -1.9716   -0.1266   -5.6486 C   0  0  0  0  0  0  0  0  0  0  0  0
   -3.3661    0.1145   -5.5835 C   0  0  0  0  0  0  0  0  0  0  0  0
    1.6184    0.7046    5.5000 C   0  0  0  0  0  0  0  0  0  0  0  0
    1.6624    1.8524    6.2900 C   0  0  0  0  0  0  0  0  0  0  0  0
    1.9189   -0.5196    6.0767 C   0  0  0  0  0  0  0  0  0  0  0  0
    2.0948    1.7095    7.5908 C   0  0  0  0  0  0  0  0  0  0  0  0
    2.3566   -0.6556    7.3765 C   0  0  0  0  0  0  0  0  0  0  0  0
    2.4213    0.4785    8.1381 C   0  0  0  0  0  0  0  0  0  0  0  0
    3.0354    0.2419    9.7628 S   0  0  0  0  0  0  0  0  0  0  0  0
    3.0437    1.9260   10.4649 C   0  0  0  0  0  0  0  0  0  0  0  0
  2  1  1  0
  3  2  2  0
  4  1  1  0
  5  4  2  0
  5  3  1  0
  6  2  1  0
  7  1  2  0
  8  7  1  0
  9  5  1  0
 10  7  1  0
 11  3  1  0
 12 11  1  0
 13 12  2  0
 14 10  1  0
 15 14  2  0
 16 14  1  0
 17 15  1  0
 18 16  2  0
 19 18  1  0
 19 17  2  0
 20 12  1  0
 21 20  2  0
 22 20  1  0
 23 21  1  0
 24 22  2  0
 25 24  1  0
 25 23  2  0
 26 25  1  0
 27 26  1  0
M  CHG  2   4   1   8  -1
M  END
>  <SMILES>  (13) 
CSc1ccc(C(=O)NC2=C(C)C(=C([O-])Nc3ccccc3)[S+]=C2N)cc1

>  <scaffold>  (13) 
thiophene

$$$$

     RDKit          3D

 23 24  0  0  0  0  0  0  0  0999 V2000
   -0.0000    0.0000    0.0000 C   0  0  0  0  0  0  0  0  0  0  0  0
    0.0000    0.0000    1.3548 C   0  0  0  0  0  0  0  0  0  0  0  0
    1.5828    0.0000    2.0605 S   0  0  0  0  0  0  0  0  0  0  0  0
    1.3148   -0.0000   -0.5319 C   0  0  0  0  0  0  0  0  0  0  0  0
    2.2937   -0.0513    0.4482 C   0  0  0  0  0  0  0  0  0  0  0  0
    1.6534   -0.0536   -1.8425 N   0  0  0  0  0  0  0  0  0  0  0  0
   -1.2624    0.0000    2.1683 C   0  0  0  0  0  0  0  0  0  0  0  0
   -2.3040    0.7724    1.5739 O   0  0  0  0  0  0  0  0  0  0  0  0
    3.7302   -0.1233    0.2556 C   0  0  0  0  0  0  0  0  0  0  0  0
    4.2942   -0.1495   -0.8047 O   0  0  0  0  0  0  0  0  0  0  0  0
   -2.1571    2.1057    1.6982 C   0  0  0  0  0  0  0  0  0  0  0  0
   -1.2708    2.6523    2.2971 O   0  0  0  0  0  0  0  0  0  0  0  0
    4.3488   -0.2101    1.4490 O   0  0  0  0  0  0  0  0  0  0  0  0
    5.7598   -0.3421    1.3915 C   0  0  0  0  0  0  0  0  0  0  0  0
   -3.2698    2.7894    0.9920 C   0  0  0  0  0  0  0  0  0  0  0  0
   -4.2694    2.1458    0.2639 C   0  0  0  0  0  0  0  0  0  0  0  0
   -3.2575    4.1717    1.0946 C   0  0  0  0  0  0  0  0  0  0  0  0
   -5.2612    2.8306   -0.4207 C   0  0  0  0  0  0  0  0  0  0  0  0
   -4.2493    4.8563    0.4098 C   0  0  0  0  0  0  0  0  0  0  0  0
   -5.1757    4.2105   -0.3203 C   0  0  0  0  0  0  0  0  0  0  0  0
   -6.2522    2.3198   -1.2040 O   0  0  0  0  0  0  0  0  0  0  0  0
   -4.2271    6.1851    0.5761 O   0  0  0  0  0  0  0  0  0  0  0  0
   -6.2434    0.9221   -1.3139 C   0  0  0  0  0  0  0  0  0  0  0  0
  2  1  1  0
  3  2  2  0
  4  1  2  0
  5  4  1  0
  5  3  1  0
  6  4  1  0
  7  2  1  0
  8  7  1  0
  9  5  2  0
 10  9  1  0
 11  8  1  0
 12 11  2  0
 13  9  1  0
 14 13  1  0
 15 11  1  0
 16 15  2  0
 17 15  1  0
 18 16  1  0
 19 17  2  0
 20 19  1  0
 20 18  2  0
 21 18  1  0
 22 19  1  0
 23 21  1  0
M  CHG  2   3   1  10  -1
M  END
>  <SMILES>  (14) 
COC([O-])=C1[S+]=C(COC(=O)c2cc(O)cc(OC)c2)C=C1N

>  <scaffold>  (14) 
thiophene

$$$$

     RDKit          3D

 29 30  0  0  0  0  0  0  0  0999 V2000
   -0.0000   -0.0000   -0.0000 C   0  0  0  0  0  0  0  0  0  0  0  0
    0.0000    0.0000    1.3625 C   0  0  0  0  0  0  0  0  0  0  0  0
    1.5868    0.0000    2.0084 S   0  0  0  0  0  0  0  0  0  0  0  0
    1.2998    0.0000   -0.5258 C   0  0  0  0  0  0  0  0  0  0  0  0
    2.2676   -0.0507    0.4431 C   0  0  0  0  0  0  0  0  0  0  0  0
    3.7140   -0.0076    0.2537 C   0  0  0  0  0  0  0  0  0  0  0  0
    4.2798    0.0805   -0.8024 O   0  0  0  0  0  0  0  0  0  0  0  0
    4.3323   -0.1339    1.4351 O   0  0  0  0  0  0  0  0  0  0  0  0
    5.7322   -0.0609    1.4651 N   0  0  0  0  0  0  0  0  0  0  0  0
    6.3444    0.9370    0.9493 C   0  0  0  0  0  0  0  0  0  0  0  0
    7.8075    0.9924    1.0526 C   0  0  0  0  0  0  0  0  0  0  0  0
    8.3860    2.1077    0.6113 N   0  0  0  0  0  0  0  0  0  0  0  0
    8.5332   -0.0409    1.6437 C   0  0  0  0  0  0  0  0  0  0  0  0
    9.6851    2.1808    0.6410 C   0  0  0  0  0  0  0  0  0  0  0  0
    9.9170    0.0333    1.6741 C   0  0  0  0  0  0  0  0  0  0  0  0
   10.5224    1.1674    1.1054 C   0  0  0  0  0  0  0  0  0  0  0  0
   12.3001    1.3017    1.0618 S   0  0  0  0  0  6  0  0  0  0  0  0
   12.8383    1.2027    2.3879 O   0  0  0  0  0  0  0  0  0  0  0  0
   12.6577    2.5360    0.3876 O   0  0  0  0  0  0  0  0  0  0  0  0
   12.7492   -0.0162    0.1144 N   0  0  0  0  0  0  0  0  0  0  0  0
   12.4575    0.1981   -1.2823 C   0  0  0  0  0  0  0  0  0  0  0  0
   14.0638   -0.5746    0.3708 C   0  0  0  0  0  0  0  0  0  0  0  0
   14.1338   -2.0943    0.2300 C   0  0  0  0  0  0  0  0  0  0  0  0
   15.5565   -2.6285    0.4574 C   0  0  0  0  0  0  0  0  0  0  0  0
   15.9897   -2.5520    1.9206 C   0  0  0  0  0  0  0  0  0  0  0  0
   17.3867   -3.1439    2.1013 C   0  0  0  0  0  0  0  0  0  0  0  0
   17.8924   -3.0412    3.5487 C   0  0  0  0  0  0  0  0  0  0  0  0
   19.3031   -3.5929    3.6636 C   0  0  0  0  0  0  0  0  0  0  0  0
   20.3009   -2.9246    3.6927 O   0  0  0  0  0  0  0  0  0  0  0  0
  2  1  1  0
  3  2  2  0
  4  1  2  0
  5  4  1  0
  5  3  1  0
  6  5  2  0
  7  6  1  0
  8  6  1  0
  9  8  1  0
 10  9  2  0
 11 10  1  0
 12 11  2  0
 13 11  1  0
 14 12  1  0
 15 13  2  0
 16 15  1  0
 16 14  2  0
 17 16  1  0
 18 17  2  0
 19 17  2  0
 20 17  1  0
 21 20  1  0
 22 20  1  0
 23 22  1  0
 24 23  1  0
 25 24  1  0
 26 25  1  0
 27 26  1  0
 28 27  1  0
 29 28  2  0
M  CHG  2   3   1   7  -1
M  END
>  <SMILES>  (15) 
CN(CCCCCCC=O)S(=O)(=O)c1ccc(C=NOC([O-])=C2C=CC=[S+]2)nc1

>  <scaffold>  (15) 
thiophene

$$$$

     RDKit          3D

 26 28  0  0  0  0  0  0  0  0999 V2000
    0.0000    0.0000   -0.0000 C   0  0  0  0  0  0  0  0  0  0  0  0
   -0.0000    0.0000    1.3548 C   0  0  0  0  0  0  0  0  0  0  0  0
    1.5960    0.0000    2.0043 S   0  0  0  0  0  0  0  0  0  0  0  0
    1.3073   -0.0000   -0.5288 C   0  0  0  0  0  0  0  0  0  0  0  0
    2.3216   -0.0498    0.3796 C   0  0  0  0  0  0  0  0  0  0  0  0
    4.2017   -0.1443    0.1274 Br  0  0  0  0  0  0  0  0  0  0  0  0
   -1.2409   -0.0000    2.1544 C   0  0  0  0  0  0  0  0  0  0  0  0
   -2.3556   -0.1098    1.7013 O   0  0  0  0  0  0  0  0  0  0  0  0
   -1.0400    0.0538    3.5010 N   0  0  0  0  0  0  0  0  0  0  0  0
   -2.0471    0.1153    4.3819 N   0  0  0  0  0  0  0  0  0  0  0  0
   -1.8128    0.1183    5.6471 C   0  0  0  0  0  0  0  0  0  0  0  0
   -2.9088    0.2356    6.5395 C   0  0  0  0  0  0  0  0  0  0  0  0
   -2.8554    0.3111    7.8989 C   0  0  0  0  0  0  0  0  0  0  0  0
   -4.5368    0.4473    5.9542 S   0  0  0  0  0  0  0  0  0  0  0  0
   -4.1218    0.4761    8.4777 C   0  0  0  0  0  0  0  0  0  0  0  0
   -5.1625    0.5603    7.5663 C   0  0  0  0  0  0  0  0  0  0  0  0
   -6.6264    0.7057    7.8229 C   0  0  0  0  0  0  0  0  0  0  0  0
   -6.9378    0.6141    9.2892 C   0  0  0  0  0  0  0  0  0  0  0  0
   -6.9575   -0.6366    9.8864 C   0  0  0  0  0  0  0  0  0  0  0  0
   -7.1664    1.7706   10.0185 C   0  0  0  0  0  0  0  0  0  0  0  0
   -7.1910   -0.7665   11.2466 C   0  0  0  0  0  0  0  0  0  0  0  0
   -7.4025    1.6386   11.3861 C   0  0  0  0  0  0  0  0  0  0  0  0
   -7.4654    0.3717   12.0034 C   0  0  0  0  0  0  0  0  0  0  0  0
   -7.1821   -1.9313   11.9535 O   0  0  0  0  0  0  0  0  0  0  0  0
   -6.9094   -3.1101   11.2291 C   0  0  0  0  0  0  0  0  0  0  0  0
   -7.0236   -4.2421   12.2487 C   0  0  0  0  0  0  0  0  0  0  0  0
  2  1  1  0
  3  2  1  0
  4  1  2  0
  5  4  1  0
  5  3  2  0
  6  5  1  0
  7  2  2  0
  8  7  1  0
  9  7  1  0
 10  9  1  0
 11 10  2  0
 12 11  1  0
 13 12  2  0
 14 12  1  0
 15 13  1  0
 16 15  2  0
 16 14  1  0
 17 16  1  0
 18 17  1  0
 19 18  2  0
 20 18  1  0
 21 19  1  0
 22 20  2  0
 23 22  1  0
 23 21  2  0
 24 21  1  0
 25 24  1  0
 26 25  1  0
M  CHG  2   3   1   8  -1
M  END
>  <SMILES>  (16) 
CCOc1cccc(Cc2ccc(C=NNC([O-])=C3C=CC(Br)=[S+]3)s2)c1

>  <scaffold>  (16) 
thiophene

$$$$

     RDKit          3D

 21 23  0  0  0  0  0  0  0  0999 V2000
   -0.0000    0.0000    0.0000 C   0  0  0  0  0  0  0  0  0  0  0  0
   -0.0000   -0.0000    1.3625 C   0  0  0  0  0  0  0  0  0  0  0  0
    1.2972    0.0000    1.9156 C   0  0  0  0  0  0  0  0  0  0  0  0
    1.6065    0.0000   -0.6499 S   0  0  0  0  0  0  0  0  0  0  0  0
    2.2918    0.0675    0.9296 C   0  0  0  0  0  0  0  0  0  0  0  0
   -1.1840   -0.0582   -0.8514 C   0  0  0  0  0  0  0  0  0  0  0  0
   -0.9963   -0.5828   -2.1293 C   0  0  0  0  0  0  0  0  0  0  0  0
   -2.4490    0.3256   -0.3840 C   0  0  0  0  0  0  0  0  0  0  0  0
   -2.0833   -0.7016   -2.9422 C   0  0  0  0  0  0  0  0  0  0  0  0
   -3.5339    0.2082   -1.1999 C   0  0  0  0  0  0  0  0  0  0  0  0
   -3.3802   -0.3340   -2.5865 C   0  0  0  0  0  0  0  0  0  0  0  0
   -4.5685   -0.4879   -3.3903 C   0  0  0  0  0  0  0  0  0  0  0  0
   -5.7726   -0.1222   -3.1217 N   0  0  0  0  0  0  0  0  0  0  0  0
   -4.3460   -1.2033   -4.9530 S   0  0  0  0  0  0  0  0  0  0  0  0
   -6.7233   -0.4306   -4.0247 C   0  0  0  0  0  0  0  0  0  0  0  0
   -6.0771   -1.0014   -4.9745 C   0  0  0  0  0  0  0  0  0  0  0  0
   -6.7796   -1.5088   -6.1800 C   0  0  0  0  0  0  0  0  0  0  0  0
   -6.6326   -3.0168   -6.3763 C   0  0  0  0  0  0  0  0  0  0  0  0
   -7.4718   -3.7968   -5.9930 O   0  0  0  0  0  0  0  0  0  0  0  0
   -5.4552   -3.2796   -6.8847 O   0  0  0  0  0  0  0  0  0  0  0  0
   -5.1026   -4.6546   -7.0922 C   0  0  0  0  0  0  0  0  0  0  0  0
  2  1  2  0
  3  2  1  0
  4  1  1  0
  5  4  1  0
  5  3  2  0
  6  1  1  0
  7  6  2  0
  8  6  1  0
  9  7  1  0
 10  8  2  0
 11 10  1  0
 11  9  2  0
 12 11  1  0
 13 12  2  0
 14 12  1  0
 15 13  1  0
 16 15  2  0
 16 14  1  0
 17 16  1  0
 18 17  1  0
 19 18  2  0
 20 18  1  0
 21 20  1  0
M  END
>  <SMILES>  (17) 
COC(=O)Cc1cnc(-c2ccc(-c3cccs3)cc2)s1

>  <scaffold>  (17) 
thiophene

$$$$

     RDKit          3D

 23 24  0  0  0  0  0  0  0  0999 V2000
    0.0000    0.0000    0.0000 C   0  0  0  0  0  0  0  0  0  0  0  0
    0.0000   -0.0000    1.3704 C   0  0  0  0  0  0  0  0  0  0  0  0
    1.3222    0.0000    1.8833 C   0  0  0  0  0  0  0  0  0  0  0  0
    1.6065    0.0000   -0.6499 S   0  0  0  0  0  0  0  0  0  0  0  0
    2.2879    0.0671    0.9206 C   0  0  0  0  0  0  0  0  0  0  0  0
   -1.2481    0.0000    2.1746 C   0  0  0  0  0  0  0  0  0  0  0  0
   -1.0697   -0.0000   -0.8565 N   0  0  0  0  0  0  0  0  0  0  0  0
   -1.0212    0.0486   -2.2018 C   0  0  0  0  0  0  0  0  0  0  0  0
    0.0318    0.0989   -2.7920 O   0  0  0  0  0  0  0  0  0  0  0  0
   -2.2235   -0.0157   -2.9045 N   0  0  0  0  0  0  0  0  0  0  0  0
   -3.5008   -0.1244   -2.4429 C   0  0  0  0  0  0  0  0  0  0  0  0
   -3.8215   -0.2442   -1.2843 O   0  0  0  0  0  0  0  0  0  0  0  0
   -4.5198   -0.1016   -3.5577 C   0  0  0  0  0  0  0  0  0  0  0  0
   -4.3816    1.3730   -4.6234 S   0  0  0  0  0  0  0  0  0  0  0  0
   -6.0308    1.9353   -4.5805 C   0  0  0  0  0  0  0  0  0  0  0  0
   -6.9756    1.2732   -3.9307 N   0  0  0  0  0  0  0  0  0  0  0  0
   -6.2464    3.0674   -5.2479 N   0  0  0  0  0  0  0  0  0  0  0  0
   -8.2100    1.7074   -3.9641 C   0  0  0  0  0  0  0  0  0  0  0  0
   -7.4668    3.4966   -5.2809 C   0  0  0  0  0  0  0  0  0  0  0  0
   -8.5213    2.8920   -4.6299 C   0  0  0  0  0  0  0  0  0  0  0  0
   -9.8185    3.3323   -4.5966 N   0  0  0  0  0  0  0  0  0  0  0  0
  -11.0312    2.5644   -4.3831 C   0  0  0  0  0  0  0  0  0  0  0  0
  -11.2562    1.5931   -5.5408 C   0  0  0  0  0  0  0  0  0  0  0  0
  2  1  2  0
  3  2  1  0
  4  1  1  0
  5  4  1  0
  5  3  2  0
  6  2  1  0
  7  1  1  0
  8  7  1  0
  9  8  2  0
 10  8  1  0
 11 10  1  0
 12 11  2  0
 13 11  1  0
 14 13  1  0
 15 14  1  0
 16 15  2  0
 17 15  1  0
 18 16  1  0
 19 17  2  0
 20 19  1  0
 20 18  2  0
 21 20  1  0
 22 21  1  0
 23 22  1  0
M  END
>  <SMILES>  (18) 
CCNc1cnc(SCC(=O)NC(=O)Nc2sccc2C)nc1

>  <scaffold>  (18) 
thiophene

$$$$

     RDKit          3D

 31 33  0  0  0  0  0  0  0  0999 V2000
   -0.0000    0.0000    0.0000 C   0  0  0  0  0  0  0  0  0  0  0  0
    0.0000    0.0000    1.3625 C   0  0  0  0  0  0  0  0  0  0  0  0
    1.2972    0.0000    1.9156 C   0  0  0  0  0  0  0  0  0  0  0  0
    1.6065    0.0000   -0.6499 S   0  0  0  0  0  0  0  0  0  0  0  0
    2.2879   -0.0671    0.9206 C   0  0  0  0  0  0  0  0  0  0  0  0
   -1.2045    0.0592   -0.8661 C   0  0  0  0  0  0  0  0  0  0  0  0
   -1.3323    1.3570   -1.4639 N   0  0  0  0  0  0  0  0  0  0  0  0
   -1.9069    2.3858   -0.8767 N   0  0  0  0  0  0  0  0  0  0  0  0
   -0.7628    1.6605   -2.6114 N   0  0  0  0  0  0  0  0  0  0  0  0
   -1.7557    3.3678   -1.7519 C   0  0  0  0  0  0  0  0  0  0  0  0
   -1.0463    2.8863   -2.7991 N   0  0  0  0  0  0  0  0  0  0  0  0
   -2.2571    4.7247   -1.6375 C   0  0  0  0  0  0  0  0  0  0  0  0
   -2.0778    5.6527   -2.6515 C   0  0  0  0  0  0  0  0  0  0  0  0
   -2.9197    5.0815   -0.4828 C   0  0  0  0  0  0  0  0  0  0  0  0
   -2.6145    6.9151   -2.5184 C   0  0  0  0  0  0  0  0  0  0  0  0
   -3.4594    6.3512   -0.3486 C   0  0  0  0  0  0  0  0  0  0  0  0
   -3.3463    7.3245   -1.3946 C   0  0  0  0  0  0  0  0  0  0  0  0
   -3.8717    8.5817   -1.4017 O   0  0  0  0  0  0  0  0  0  0  0  0
   -4.7611    9.0760   -0.4020 C   0  0  0  0  0  0  0  0  0  0  0  0
   -6.1605    8.4901   -0.5830 C   0  0  0  0  0  0  0  0  0  0  0  0
   -7.0576    9.0065    0.5408 C   0  0  0  0  0  0  0  0  0  0  0  0
   -8.4863    8.4915    0.3740 C   0  0  0  0  0  0  0  0  0  0  0  0
   -9.4126    8.9360    1.5048 C   0  0  0  0  0  0  0  0  0  0  0  0
  -10.8119    8.3511    1.3199 C   0  0  0  0  0  0  0  0  0  0  0  0
  -11.7637    8.7221    2.4560 C   0  0  0  0  0  0  0  0  0  0  0  0
  -13.1221    8.0730    2.2528 C   0  0  1  0  0  0  0  0  0  0  0  0
  -14.2658    8.5292    3.7706 Br  0  0  0  0  0  0  0  0  0  0  0  0
  -13.8000    8.4915    0.9490 C   0  0  0  0  0  0  0  0  0  0  0  0
  -15.1830    7.8553    0.8190 C   0  0  0  0  0  0  0  0  0  0  0  0
  -15.8382    8.3471   -0.4707 C   0  0  0  0  0  0  0  0  0  0  0  0
  -17.2493    7.7808   -0.6208 C   0  0  0  0  0  0  0  0  0  0  0  0
  2  1  2  0
  3  2  1  0
  4  1  1  0
  5  4  1  0
  5  3  2  0
  6  1  1  0
  7  6  1  0
  8  7  1  0
  9  7  1  0
 10  8  2  0
 11 10  1  0
 11  9  2  0
 12 10  1  0
 13 12  2  0
 14 12  1  0
 15 13  1  0
 16 14  2  0
 17 16  1  0
 17 15  2  0
 18 17  1  0
 19 18  1  0
 20 19  1  0
 21 20  1  0
 22 21  1  0
 23 22  1  0
 24 23  1  0
 25 24  1  0
 26 25  1  0
 26 27  1  1
 28 26  1  0
 29 28  1  0
 30 29  1  0
 31 30  1  0
M  END
>  <SMILES>  (19) 
CCCCC(Br)CCCCCCCOc1ccc(-c2nnn(Cc3cccs3)n2)cc1

>  <scaffold>  (19) 
thiophene

$$$$

     RDKit          3D

 31 32  0  0  0  0  0  0  0  0999 V2000
    0.0000    0.0000    0.0000 C   0  0  0  0  0  0  0  0  0  0  0  0
   -0.0000    0.0000    1.3782 C   0  0  0  0  0  0  0  0  0  0  0  0
    1.2898    0.0000    1.9281 C   0  0  0  0  0  0  0  0  0  0  0  0
    1.6157   -0.0000   -0.6536 S   0  0  0  0  0  0  0  0  0  0  0  0
    2.2971   -0.0671    0.9169 C   0  0  0  0  0  0  0  0  0  0  0  0
   -1.1263   -0.0000   -0.9018 C   0  0  0  0  0  0  0  0  0  0  0  0
   -1.0112   -0.0477   -2.1175 O   0  0  0  0  0  0  0  0  0  0  0  0
   -2.3373   -0.0000   -0.2773 N   0  0  0  0  0  0  0  0  0  0  0  0
   -3.4492    0.0500   -1.1035 N   0  0  0  0  0  0  0  0  0  0  0  0
   -4.6073    0.4559   -0.5478 C   0  0  0  0  0  0  0  0  0  0  0  0
   -4.7159    0.7229    0.6398 O   0  0  0  0  0  0  0  0  0  0  0  0
   -5.6892    0.5186   -1.5378 C   0  0  0  0  0  0  0  0  0  0  0  0
   -5.6254    0.2910   -2.8253 N   0  0  0  0  0  0  0  0  0  0  0  0
   -7.0090    0.8589   -1.2086 C   0  0  0  0  0  0  0  0  0  0  0  0
   -6.8283    0.5016   -3.4118 O   0  0  0  0  0  0  0  0  0  0  0  0
   -7.6321    0.8405   -2.4202 C   0  0  0  0  0  0  0  0  0  0  0  0
   -9.0235    1.1597   -2.8281 C   0  0  0  0  0  0  0  0  0  0  0  0
   -9.8570    1.5792   -1.6183 C   0  0  0  0  0  0  0  0  0  0  0  0
  -11.2888    1.8431   -2.0817 C   0  0  0  0  0  0  0  0  0  0  0  0
  -12.1785    2.2143   -0.8963 C   0  0  0  0  0  0  0  0  0  0  0  0
  -13.6058    2.4139   -1.4036 C   0  0  0  0  0  0  0  0  0  0  0  0
  -14.5484    2.7343   -0.2446 C   0  0  0  0  0  0  0  0  0  0  0  0
  -15.9668    2.8702   -0.7960 C   0  0  0  0  0  0  0  0  0  0  0  0
  -16.9424    3.2454    0.3184 C   0  0  0  0  0  0  0  0  0  0  0  0
  -18.3496    3.3151   -0.2726 C   0  0  0  0  0  0  0  0  0  0  0  0
  -19.3583    3.7412    0.7930 C   0  0  0  0  0  0  0  0  0  0  0  0
  -20.7753    3.8792    0.2385 C   0  0  0  0  0  0  0  0  0  0  0  0
  -21.7411    4.2486    1.3395 C   0  0  0  0  0  0  0  0  0  0  0  0
  -21.5896    4.4406    2.5086 O   0  0  0  0  0  0  0  0  0  0  0  0
  -22.9574    4.4053    0.8011 O   0  0  0  0  0  0  0  0  0  0  0  0
  -23.9596    4.8142    1.7427 C   0  0  0  0  0  0  0  0  0  0  0  0
  2  1  1  0
  3  2  2  0
  4  1  1  0
  5  4  2  0
  5  3  1  0
  6  1  2  0
  7  6  1  0
  8  6  1  0
  9  8  1  0
 10  9  1  0
 11 10  2  0
 12 10  1  0
 13 12  2  0
 14 12  1  0
 15 13  1  0
 16 15  1  0
 16 14  2  0
 17 16  1  0
 18 17  1  0
 19 18  1  0
 20 19  1  0
 21 20  1  0
 22 21  1  0
 23 22  1  0
 24 23  1  0
 25 24  1  0
 26 25  1  0
 27 26  1  0
 28 27  1  0
 29 28  2  0
 30 28  1  0
 31 30  1  0
M  CHG  2   4   1   7  -1
M  END
>  <SMILES>  (20) 
COC(=O)CCCCCCCCCCCc1cc(C(=O)NNC([O-])=C2C=CC=[S+]2)no1

>  <scaffold>  (20) 
thiophene

$$$$

     RDKit          3D

 29 31  0  0  0  0  0  0  0  0999 V2000
    0.0000   -0.0000   -0.0000 C   0  0  0  0  0  0  0  0  0  0  0  0
   -0.0000   -0.0000    1.3625 C   0  0  0  0  0  0  0  0  0  0  0  0
    1.5868   -0.0000    2.0084 S   0  0  0  0  0  0  0  0  0  0  0  0
    1.2998   -0.0000   -0.5258 C   0  0  0  0  0  0  0  0  0  0  0  0
    2.3200    0.0501    0.3878 C   0  0  0  0  0  0  0  0  0  0  0  0
    3.7239    0.1207    0.1995 C   0  0  0  0  0  0  0  0  0  0  0  0
    4.6527    0.2130    1.0960 N   0  0  0  0  0  0  0  0  0  0  0  0
    4.1845    0.1451   -1.0826 O   0  0  0  0  0  0  0  0  0  0  0  0
    5.8089    0.2999    0.3952 N   0  0  0  0  0  0  0  0  0  0  0  0
    5.5319    0.2665   -0.9200 C   0  0  0  0  0  0  0  0  0  0  0  0
    6.5790    0.2795   -2.1533 S   0  0  0  0  0  0  0  0  0  0  0  0
   -1.1585    0.0000   -0.7465 O   0  0  0  0  0  0  0  0  0  0  0  0
   -2.4047   -0.0000   -0.1039 C   0  0  0  0  0  0  0  0  0  0  0  0
   -2.7217    1.3059    0.6230 C   0  0  0  0  0  0  0  0  0  0  0  0
   -3.5268    1.3872    1.5016 O   0  0  0  0  0  0  0  0  0  0  0  0
   -2.0489    2.3257    0.1323 O   0  0  0  0  0  0  0  0  0  0  0  0
   -2.3019    3.6288    0.6977 C   0  0  0  0  0  0  0  0  0  0  0  0
   -3.4443    4.2604   -0.0623 C   0  0  0  0  0  0  0  0  0  0  0  0
   -3.2155    5.1882   -1.0664 C   0  0  0  0  0  0  0  0  0  0  0  0
   -4.7372    3.8827    0.2297 C   0  0  0  0  0  0  0  0  0  0  0  0
   -4.2931    5.7037   -1.7695 C   0  0  0  0  0  0  0  0  0  0  0  0
   -5.8078    4.3951   -0.4709 C   0  0  0  0  0  0  0  0  0  0  0  0
   -5.6166    5.3403   -1.5248 C   0  0  0  0  0  0  0  0  0  0  0  0
   -6.5779    5.9451   -2.2347 O   0  0  0  0  0  0  0  0  0  0  0  0
   -7.9495    5.6439   -1.9845 C   0  0  0  0  0  0  0  0  0  0  0  0
   -8.8091    6.5129   -2.8866 C   0  0  0  0  0  0  0  0  0  0  0  0
  -10.2900    6.1889   -2.6956 C   0  0  0  0  0  0  0  0  0  0  0  0
  -11.1955    6.9993   -3.6217 C   0  0  0  0  0  0  0  0  0  0  0  0
  -12.6410    6.6042   -3.4323 C   0  0  0  0  0  0  0  0  0  0  0  0
  2  1  2  0
  3  2  1  0
  4  1  1  0
  5  4  2  0
  5  3  1  0
  6  5  1  0
  7  6  2  0
  8  6  1  0
  9  7  1  0
 10  8  1  0
 10  9  1  0
 11 10  2  0
 12  1  1  0
 13 12  1  0
 14 13  1  0
 15 14  2  0
 16 14  1  0
 17 16  1  0
 18 17  1  0
 19 18  2  0
 20 18  1  0
 21 19  1  0
 22 20  2  0
 23 22  1  0
 23 21  2  0
 24 23  1  0
 25 24  1  0
 26 25  1  0
 27 26  1  0
 28 27  1  0
 29 28  1  0
M  END
>  <SMILES>  (21) 
CCCCCOc1ccc(COC(=O)COc2csc(-c3n[nH]c(=S)o3)c2)cc1

>  <scaffold>  (21) 
thiophene

$$$$

     RDKit          3D

 25 26  0  0  0  0  0  0  0  0999 V2000
   -0.0000   -0.0000   -0.0000 C   0  0  0  0  0  0  0  0  0  0  0  0
   -0.0000    0.0000    1.3625 C   0  0  0  0  0  0  0  0  0  0  0  0
    1.6010   -0.0000    2.0764 S   0  0  0  0  0  0  0  0  0  0  0  0
    1.3223    0.0000   -0.5349 C   0  0  0  0  0  0  0  0  0  0  0  0
    2.3012    0.0513    0.4451 C   0  0  0  0  0  0  0  0  0  0  0  0
    1.7552    0.0570   -1.9101 C   0  0  0  0  0  0  0  0  0  0  0  0
    3.6329    0.0085    0.1996 N   0  0  0  0  0  0  0  0  0  0  0  0
    3.1606    0.0910   -2.0198 N   0  0  0  0  0  0  0  0  0  0  0  0
    1.0676    0.1185   -2.9270 O   0  0  0  0  0  0  0  0  0  0  0  0
    4.0235   -0.0855   -1.0150 C   0  0  0  0  0  0  0  0  0  0  0  0
   -1.2552    0.0000    2.1714 C   0  0  0  0  0  0  0  0  0  0  0  0
   -1.2697   -0.0000   -0.8182 C   0  0  0  0  0  0  0  0  0  0  0  0
    3.7031    0.0927   -3.3041 N   0  0  0  0  0  0  0  0  0  0  0  0
    5.4869   -0.1905   -1.3361 C   0  0  0  0  0  0  0  0  0  0  0  0
    6.3804   -0.5479   -0.1494 C   0  0  0  0  0  0  0  0  0  0  0  0
    6.1788   -1.9947    0.2983 C   0  0  0  0  0  0  0  0  0  0  0  0
    7.0523   -2.2843    1.5179 C   0  0  0  0  0  0  0  0  0  0  0  0
    6.8460   -3.7056    2.0391 C   0  0  0  0  0  0  0  0  0  0  0  0
    7.7792   -3.9618    3.2214 C   0  0  0  0  0  0  0  0  0  0  0  0
    7.5717   -5.3624    3.8185 C   0  0  0  0  0  0  0  0  0  0  0  0
    8.3622   -5.4774    5.1209 C   0  0  0  0  0  0  0  0  0  0  0  0
    8.1452   -6.8365    5.7843 C   0  0  0  0  0  0  0  0  0  0  0  0
    8.9113   -6.8799    7.1055 C   0  0  0  0  0  0  0  0  0  0  0  0
    8.7716   -8.2340    7.7799 C   0  0  0  0  0  0  0  0  0  0  0  0
    9.5977   -8.2431    9.0652 C   0  0  0  0  0  0  0  0  0  0  0  0
  2  1  2  0
  3  2  1  0
  4  1  1  0
  5  4  1  0
  5  3  2  0
  6  4  2  0
  7  5  1  0
  8  6  1  0
  9  6  1  0
 10  8  1  0
 10  7  2  0
 11  2  1  0
 12  1  1  0
 13  8  1  0
 14 10  1  0
 15 14  1  0
 16 15  1  0
 17 16  1  0
 18 17  1  0
 19 18  1  0
 20 19  1  0
 21 20  1  0
 22 21  1  0
 23 22  1  0
 24 23  1  0
 25 24  1  0
M  CHG  2   3   1   9  -1
M  END
>  <SMILES>  (22) 
CCCCCCCCCCCCc1nc2[s+]c(C)c(C)c-2c([O-])n1N

>  <scaffold>  (22) 
thiophene

$$$$

     RDKit          3D

 30 32  0  0  0  0  0  0  0  0999 V2000
   -0.0000   -0.0000    0.0000 C   0  0  0  0  0  0  0  0  0  0  0  0
    0.0000    0.0000    1.3548 C   0  0  0  0  0  0  0  0  0  0  0  0
    1.5851    0.0000    2.0305 S   0  0  0  0  0  0  0  0  0  0  0  0
    1.3073    0.0000   -0.5288 C   0  0  0  0  0  0  0  0  0  0  0  0
    2.2695    0.0504    0.4345 C   0  0  0  0  0  0  0  0  0  0  0  0
    3.6512    0.0093    0.2536 N   0  0  0  0  0  0  0  0  0  0  0  0
    4.5088    0.1196    1.2865 C   0  0  0  0  0  0  0  0  0  0  0  0
    4.2080    0.2616    2.4480 O   0  0  0  0  0  0  0  0  0  0  0  0
    5.7886    0.1027    0.8423 O   0  0  0  0  0  0  0  0  0  0  0  0
    6.8605    0.1468    1.7077 C   0  0  0  0  0  0  0  0  0  0  0  0
    8.0254    0.7524    1.2156 C   0  0  0  0  0  0  0  0  0  0  0  0
    6.8641   -0.4226    2.9802 C   0  0  0  0  0  0  0  0  0  0  0  0
    9.1513    0.7759    2.0373 C   0  0  0  0  0  0  0  0  0  0  0  0
    8.0171   -0.3578    3.7325 C   0  0  0  0  0  0  0  0  0  0  0  0
    9.1243    0.2856    3.3000 C   0  0  0  0  0  0  0  0  0  0  0  0
   10.1374    0.3003    4.2110 O   0  0  0  0  0  0  0  0  0  0  0  0
    8.1990    1.2958   -0.0218 O   0  0  0  0  0  0  0  0  0  0  0  0
    7.1054    1.7043   -0.7839 C   0  0  0  0  0  0  0  0  0  0  0  0
    6.1190    2.5577   -0.2917 C   0  0  0  0  0  0  0  0  0  0  0  0
    7.1425    1.3538   -2.1163 C   0  0  0  0  0  0  0  0  0  0  0  0
    5.0819    2.9734   -1.0986 C   0  0  0  0  0  0  0  0  0  0  0  0
    6.1063    1.7787   -2.9195 C   0  0  0  0  0  0  0  0  0  0  0  0
    5.0584    2.5785   -2.4354 C   0  0  0  0  0  0  0  0  0  0  0  0
    3.9654    3.0049   -3.1128 O   0  0  0  0  0  0  0  0  0  0  0  0
    3.9213    2.6686   -4.4983 C   0  0  0  0  0  0  0  0  0  0  0  0
    4.9070    3.4103   -5.3700 C   0  0  0  0  0  0  0  0  0  0  0  0
    4.5424    4.8939   -5.3909 C   0  0  0  0  0  0  0  0  0  0  0  0
    5.6409    5.6073   -6.1603 C   0  0  0  0  0  0  0  0  0  0  0  0
    5.3504    7.1073   -6.1632 C   0  0  0  0  0  0  0  0  0  0  0  0
    6.4496    7.7700   -6.9921 C   0  0  0  0  0  0  0  0  0  0  0  0
  2  1  2  0
  3  2  1  0
  4  1  1  0
  5  4  2  0
  5  3  1  0
  6  5  1  0
  7  6  1  0
  8  7  2  0
  9  7  1  0
 10  9  1  0
 11 10  1  0
 12 10  2  0
 13 11  2  0
 14 12  1  0
 15 14  2  0
 15 13  1  0
 16 15  1  0
 17 11  1  0
 18 17  1  0
 19 18  2  0
 20 18  1  0
 21 19  1  0
 22 20  2  0
 23 21  2  0
 23 22  1  0
 24 23  1  0
 25 24  1  0
 26 25  1  0
 27 26  1  0
 28 27  1  0
 29 28  1  0
 30 29  1  0
M  END
>  <SMILES>  (23) 
CCCCCCOc1ccc(Oc2cc(O)ccc2OC(=O)Nc2cccs2)cc1

>  <scaffold>  (23) 
thiophene

$$$$

     RDKit          3D

 22 24  0  0  0  0  0  0  0  0999 V2000
   -0.0000   -0.0000   -0.0000 C   0  0  0  0  0  0  0  0  0  0  0  0
    0.0000   -0.0000    1.3704 C   0  0  0  0  0  0  0  0  0  0  0  0
    1.2898   -0.0000    1.9202 C   0  0  0  0  0  0  0  0  0  0  0  0
    1.6065   -0.0000   -0.6499 S   0  0  0  0  0  0  0  0  0  0  0  0
    2.2879   -0.0671    0.9206 C   0  0  0  0  0  0  0  0  0  0  0  0
   -1.2198   -0.0000   -0.7860 C   0  0  0  0  0  0  0  0  0  0  0  0
   -2.3966   -0.0000   -0.1792 N   0  0  0  0  0  0  0  0  0  0  0  0
   -1.0885    0.0544   -2.1729 C   0  0  0  0  0  0  0  0  0  0  0  0
   -3.5211   -0.0472   -0.8476 C   0  0  0  0  0  0  0  0  0  0  0  0
   -2.2578    0.0031   -2.8705 C   0  0  0  0  0  0  0  0  0  0  0  0
   -3.5206   -0.0999   -2.2407 C   0  0  0  0  0  0  0  0  0  0  0  0
   -5.0018   -0.1013   -3.1968 S   0  0  0  0  0  0  0  0  0  0  0  0
   -6.1638   -1.0714   -2.2734 C   0  0  0  0  0  0  0  0  0  0  0  0
   -5.7499   -2.2826   -1.7413 C   0  0  0  0  0  0  0  0  0  0  0  0
   -7.4551   -0.6058   -2.0806 C   0  0  0  0  0  0  0  0  0  0  0  0
   -6.7062   -3.0284   -1.0699 C   0  0  0  0  0  0  0  0  0  0  0  0
   -8.4172   -1.3551   -1.4049 C   0  0  0  0  0  0  0  0  0  0  0  0
   -8.0341   -2.6442   -0.9679 C   0  0  0  0  0  0  0  0  0  0  0  0
   -9.6385   -0.8448   -1.2006 F   0  0  0  0  0  0  0  0  0  0  0  0
   -6.4070   -4.2092   -0.4594 O   0  0  0  0  0  0  0  0  0  0  0  0
   -5.1007   -4.7177   -0.4904 C   0  0  0  0  0  0  0  0  0  0  0  0
   -4.6064   -5.0937   -1.8864 C   0  0  0  0  0  0  0  0  0  0  0  0
  2  1  2  0
  3  2  1  0
  4  1  1  0
  5  4  1  0
  5  3  2  0
  6  1  1  0
  7  6  2  0
  8  6  1  0
  9  7  1  0
 10  8  2  0
 11 10  1  0
 11  9  2  0
 12 11  1  0
 13 12  1  0
 14 13  2  0
 15 13  1  0
 16 14  1  0
 17 15  2  0
 18 17  1  0
 18 16  2  0
 19 17  1  0
 20 16  1  0
 21 20  1  0
 22 21  1  0
M  END
>  <SMILES>  (24) 
CCOc1cc(F)cc(Sc2ccc(-c3cccs3)nc2)c1

>  <scaffold>  (24) 
thiophene

$$$$

     RDKit          3D

 27 28  0  0  0  0  0  0  0  0999 V2000
   -0.0000   -0.0000    0.0000 C   0  0  0  0  0  0  0  0  0  0  0  0
    0.0000   -0.0000    1.3625 C   0  0  0  0  0  0  0  0  0  0  0  0
    1.5760   -0.0000    2.0344 S   0  0  0  0  0  0  0  0  0  0  0  0
    1.3073   -0.0000   -0.5288 C   0  0  0  0  0  0  0  0  0  0  0  0
    2.2750   -0.0507    0.4401 C   0  0  0  0  0  0  0  0  0  0  0  0
    3.7261   -0.0041    0.1725 C   0  0  0  0  0  0  0  0  0  0  0  0
    4.1436    0.1372   -0.9450 O   0  0  0  0  0  0  0  0  0  0  0  0
   -1.0697   -0.0000    2.2190 N   0  0  0  0  0  0  0  0  0  0  0  0
   -0.9400   -0.0538    3.5901 C   0  0  0  0  0  0  0  0  0  0  0  0
    0.1627   -0.1038    4.0813 O   0  0  0  0  0  0  0  0  0  0  0  0
    4.4645   -0.1225    1.2837 O   0  0  0  0  0  0  0  0  0  0  0  0
   -2.1181   -0.0982    4.2731 N   0  0  0  0  0  0  0  0  0  0  0  0
   -2.4101   -0.1025    5.6363 C   0  0  0  0  0  0  0  0  0  0  0  0
   -1.3909   -0.0554    6.5863 C   0  0  0  0  0  0  0  0  0  0  0  0
   -3.7197   -0.2086    6.0781 C   0  0  0  0  0  0  0  0  0  0  0  0
   -1.8050   -0.1191    7.9076 C   0  0  0  0  0  0  0  0  0  0  0  0
   -4.1263   -0.2773    7.3849 C   0  0  0  0  0  0  0  0  0  0  0  0
   -3.1130   -0.2236    8.3784 C   0  0  0  0  0  0  0  0  0  0  0  0
   -3.5629   -0.3380    9.6595 N   0  0  0  0  0  0  0  0  0  0  0  0
   -5.4069   -0.3330    7.8695 O   0  0  0  0  0  0  0  0  0  0  0  0
   -2.6266   -0.1008   10.7203 C   0  0  0  0  0  0  0  0  0  0  0  0
   -2.3709    1.3890   10.9431 C   0  0  0  0  0  0  0  0  0  0  0  0
   -1.4924    1.7035   12.1530 C   0  0  0  0  0  0  0  0  0  0  0  0
   -1.3125    3.2061   12.3631 C   0  0  0  0  0  0  0  0  0  0  0  0
   -0.3964    3.5733   13.5294 C   0  0  0  0  0  0  0  0  0  0  0  0
   -0.2066    5.0835   13.6626 C   0  0  0  0  0  0  0  0  0  0  0  0
    0.7513    5.5035   14.7883 C   0  0  0  0  0  0  0  0  0  0  0  0
  2  1  1  0
  3  2  2  0
  4  1  2  0
  5  4  1  0
  5  3  1  0
  6  5  2  0
  7  6  1  0
  8  2  1  0
  9  8  1  0
 10  9  2  0
 11  6  1  0
 12  9  1  0
 13 12  1  0
 14 13  2  0
 15 13  1  0
 16 14  1  0
 17 15  2  0
 18 17  1  0
 18 16  2  0
 19 18  1  0
 20 17  1  0
 21 19  1  0
 22 21  1  0
 23 22  1  0
 24 23  1  0
 25 24  1  0
 26 25  1  0
 27 26  1  0
M  CHG  2   3   1   7  -1
M  END
>  <SMILES>  (25) 
CCCCCCCNc1ccc(NC(=O)NC2=[S+]C(=C([O-])O)C=C2)cc1O

>  <scaffold>  (25) 
thiophene

$$$$

     RDKit          3D

 19 21  0  0  0  0  0  0  0  0999 V2000
    0.0000   -0.0000   -0.0000 C   0  0  0  0  0  0  0  0  0  0  0  0
   -0.0000    0.0000    1.3625 C   0  0  0  0  0  0  0  0  0  0  0  0
    1.5868   -0.0000    2.0084 S   0  0  0  0  0  0  0  0  0  0  0  0
    1.2998    0.0000   -0.5258 C   0  0  0  0  0  0  0  0  0  0  0  0
    2.3200   -0.0501    0.3878 C   0  0  0  0  0  0  0  0  0  0  0  0
    3.7418   -0.0080    0.2016 C   0  0  0  0  0  0  0  0  0  0  0  0
    4.6402   -0.1164    1.1682 N   0  0  0  0  0  0  0  0  0  0  0  0
    4.3358    0.1014   -1.0727 C   0  0  0  0  0  0  0  0  0  0  0  0
    5.8655    0.0237    0.6074 N   0  0  0  0  0  0  0  0  0  0  0  0
    5.6366    0.1513   -0.6971 C   0  0  0  0  0  0  0  0  0  0  0  0
    7.2906   -0.1197    1.5114 S   0  0  0  0  0  6  0  0  0  0  0  0
    8.4315    0.1270    0.6914 O   0  0  0  0  0  0  0  0  0  0  0  0
    7.2272   -1.3675    2.2163 O   0  0  0  0  0  0  0  0  0  0  0  0
    7.0231    1.1913    2.6904 C   0  0  0  0  0  0  0  0  0  0  0  0
    6.2331    0.9056    3.7830 C   0  0  0  0  0  0  0  0  0  0  0  0
    7.6227    2.4235    2.4817 C   0  0  0  0  0  0  0  0  0  0  0  0
    5.9582    1.9015    4.6951 C   0  0  0  0  0  0  0  0  0  0  0  0
    7.3460    3.4259    3.3982 C   0  0  0  0  0  0  0  0  0  0  0  0
    6.4214    3.2004    4.4904 C   0  0  0  0  0  0  0  0  0  0  0  0
  2  1  2  0
  3  2  1  0
  4  1  1  0
  5  4  2  0
  5  3  1  0
  6  5  1  0
  7  6  2  0
  8  6  1  0
  9  7  1  0
 10  8  2  0
 10  9  1  0
 11  9  1  0
 12 11  2  0
 13 11  2  0
 14 11  1  0
 15 14  2  0
 16 14  1  0
 17 15  1  0
 18 16  2  0
 19 18  1  0
 19 17  2  0
M  END
>  <SMILES>  (26) 
O=S(=O)(c1ccccc1)n1ccc(-c2cccs2)n1

>  <scaffold>  (26) 
thiophene

$$$$

     RDKit          3D

 27 29  0  0  0  0  0  0  0  0999 V2000
    0.0000    0.0000    0.0000 C   0  0  0  0  0  0  0  0  0  0  0  0
    0.0000    0.0000    1.3704 C   0  0  0  0  0  0  0  0  0  0  0  0
    1.2898    0.0000    1.9202 C   0  0  0  0  0  0  0  0  0  0  0  0
    1.6065   -0.0000   -0.6499 S   0  0  0  0  0  0  0  0  0  0  0  0
    2.2879    0.0671    0.9206 C   0  0  0  0  0  0  0  0  0  0  0  0
   -1.1772   -0.0578   -0.8465 C   0  0  0  0  0  0  0  0  0  0  0  0
   -2.2851   -0.2222   -0.3934 O   0  0  0  0  0  0  0  0  0  0  0  0
   -0.8455    0.0116   -2.1422 O   0  0  0  0  0  0  0  0  0  0  0  0
   -1.7824   -0.0777   -3.1599 C   0  0  0  0  0  0  0  0  0  0  0  0
   -1.4952    0.6091   -4.3386 C   0  0  0  0  0  0  0  0  0  0  0  0
   -2.9390   -0.8516   -3.0772 C   0  0  0  0  0  0  0  0  0  0  0  0
   -2.3275    0.5528   -5.4457 C   0  0  0  0  0  0  0  0  0  0  0  0
   -3.7729   -0.9011   -4.1833 C   0  0  0  0  0  0  0  0  0  0  0  0
   -3.4391   -0.2588   -5.3744 C   0  0  0  0  0  0  0  0  0  0  0  0
   -4.3109   -0.4392   -6.4265 O   0  0  0  0  0  0  0  0  0  0  0  0
   -4.4564    0.4408   -7.4565 C   0  0  0  0  0  0  0  0  0  0  0  0
   -3.9122    1.5265   -7.4967 O   0  0  0  0  0  0  0  0  0  0  0  0
   -5.2562   -0.0646   -8.4045 N   0  0  0  0  0  0  0  0  0  0  0  0
   -5.6846    0.7599   -9.5192 C   0  0  0  0  0  0  0  0  0  0  0  0
   -7.1222    1.1841   -9.3326 C   0  0  0  0  0  0  0  0  0  0  0  0
   -8.1276    0.6290  -10.1088 C   0  0  0  0  0  0  0  0  0  0  0  0
   -7.4163    2.0949   -8.3190 C   0  0  0  0  0  0  0  0  0  0  0  0
   -9.4375    1.0131   -9.8676 C   0  0  0  0  0  0  0  0  0  0  0  0
   -8.7197    2.4732   -8.0794 C   0  0  0  0  0  0  0  0  0  0  0  0
   -9.7576    1.8854   -8.8390 C   0  0  0  0  0  0  0  0  0  0  0  0
  -11.0419    2.1912   -8.6132 F   0  0  0  0  0  0  0  0  0  0  0  0
  -10.4474    0.5338  -10.6329 O   0  0  0  0  0  0  0  0  0  0  0  0
  2  1  1  0
  3  2  2  0
  4  1  1  0
  5  4  2  0
  5  3  1  0
  6  1  2  0
  7  6  1  0
  8  6  1  0
  9  8  1  0
 10  9  2  0
 11  9  1  0
 12 10  1  0
 13 11  2  0
 14 12  2  0
 14 13  1  0
 15 14  1  0
 16 15  1  0
 17 16  2  0
 18 16  1  0
 19 18  1  0
 20 19  1  0
 21 20  2  0
 22 20  1  0
 23 21  1  0
 24 22  2  0
 25 24  1  0
 25 23  2  0
 26 25  1  0
 27 23  1  0
M  CHG  2   4   1   7  -1
M  END
>  <SMILES>  (27) 
O=C(NCc1ccc(F)c(O)c1)Oc1ccc(OC([O-])=C2C=CC=[S+]2)cc1

>  <scaffold>  (27) 
thiophene

$$$$

     RDKit          3D

 27 29  0  0  0  0  0  0  0  0999 V2000
   -0.0000    0.0000    0.0000 C   0  0  0  0  0  0  0  0  0  0  0  0
    0.0000    0.0000    1.3625 C   0  0  0  0  0  0  0  0  0  0  0  0
    1.5868    0.0000    2.0084 S   0  0  0  0  0  0  0  0  0  0  0  0
    1.3073    0.0000   -0.5288 C   0  0  0  0  0  0  0  0  0  0  0  0
    2.3274    0.0501    0.3848 C   0  0  0  0  0  0  0  0  0  0  0  0
    3.7785    0.0037    0.1172 C   0  0  0  0  0  0  0  0  0  0  0  0
    4.1809   -0.1968   -0.9968 O   0  0  0  0  0  0  0  0  0  0  0  0
    4.6010    0.1261    1.2164 N   0  0  0  0  0  0  0  0  0  0  0  0
    5.9465    0.1597    1.1628 N   0  0  0  0  0  0  0  0  0  0  0  0
    6.6624    0.3187    2.1933 C   0  0  0  0  0  0  0  0  0  0  0  0
    6.1472    0.4909    3.6027 C   0  0  0  0  0  0  0  0  0  0  0  0
    8.1348    0.2957    2.0889 C   0  0  0  0  0  0  0  0  0  0  0  0
    8.8482    0.5148    3.1918 N   0  0  0  0  0  0  0  0  0  0  0  0
    8.7341    0.0391    0.8566 C   0  0  0  0  0  0  0  0  0  0  0  0
   10.1631    0.5501    3.1360 C   0  0  0  0  0  0  0  0  0  0  0  0
   10.1189    0.0970    0.8755 C   0  0  0  0  0  0  0  0  0  0  0  0
   10.8582    0.3666    1.9601 C   0  0  0  0  0  0  0  0  0  0  0  0
   11.0038   -0.3125   -0.7671 Br  0  0  0  0  0  0  0  0  0  0  0  0
   12.3345    0.3630    1.9592 C   0  0  0  0  0  0  0  0  0  0  0  0
   13.0190   -0.7379    1.4463 C   0  0  0  0  0  0  0  0  0  0  0  0
   13.0838    1.4659    2.3663 C   0  0  0  0  0  0  0  0  0  0  0  0
   14.3953   -0.8072    1.4696 C   0  0  0  0  0  0  0  0  0  0  0  0
   14.4681    1.4330    2.3012 C   0  0  0  0  0  0  0  0  0  0  0  0
   15.1556    0.2199    2.0064 C   0  0  0  0  0  0  0  0  0  0  0  0
   16.6448    0.1204    1.9594 C   0  0  0  0  0  0  0  0  0  0  0  0
   17.2423   -0.8191    1.4726 O   0  0  0  0  0  0  0  0  0  0  0  0
   17.1932    1.1970    2.4630 O   0  0  0  0  0  0  0  0  0  0  0  0
  2  1  1  0
  3  2  2  0
  4  1  2  0
  5  4  1  0
  5  3  1  0
  6  5  2  0
  7  6  1  0
  8  6  1  0
  9  8  1  0
 10  9  2  0
 11 10  1  0
 12 10  1  0
 13 12  2  0
 14 12  1  0
 15 13  1  0
 16 14  2  0
 17 16  1  0
 17 15  2  0
 18 16  1  0
 19 17  1  0
 20 19  2  0
 21 19  1  0
 22 20  1  0
 23 21  2  0
 24 23  1  0
 24 22  2  0
 25 24  1  0
 26 25  2  0
 27 25  1  0
M  CHG  2   3   1   7  -1
M  END
>  <SMILES>  (28) 
CC(=NNC([O-])=C1C=CC=[S+]1)c1cc(Br)c(-c2ccc(C(=O)O)cc2)cn1

>  <scaffold>  (28) 
thiophene

$$$$

     RDKit          3D

 29 31  0  0  0  0  0  0  0  0999 V2000
   -0.0000    0.0000    0.0000 C   0  0  0  0  0  0  0  0  0  0  0  0
    0.0000   -0.0000    1.3704 C   0  0  0  0  0  0  0  0  0  0  0  0
    1.3298   -0.0000    1.8863 C   0  0  0  0  0  0  0  0  0  0  0  0
    1.6065    0.0000   -0.6499 S   0  0  0  0  0  0  0  0  0  0  0  0
    2.2997    0.0683    0.9478 C   0  0  0  0  0  0  0  0  0  0  0  0
   -1.1181    0.0549   -0.8040 N   0  0  0  0  0  0  0  0  0  0  0  0
   -1.2552    0.0000    2.1792 C   0  0  0  0  0  0  0  0  0  0  0  0
    1.6059    0.0549    3.2436 N   0  0  0  0  0  0  0  0  0  0  0  0
    3.7408    0.1556    1.2127 C   0  0  0  0  0  0  0  0  0  0  0  0
    4.1808    0.2449    2.3419 O   0  0  0  0  0  0  0  0  0  0  0  0
    4.5524    0.1245    0.1187 N   0  0  0  0  0  0  0  0  0  0  0  0
    5.9920    0.2593    0.2415 C   0  0  0  0  0  0  0  0  0  0  0  0
    6.4481    1.6529   -0.0832 C   0  0  0  0  0  0  0  0  0  0  0  0
    6.1587    2.7263    0.7580 C   0  0  0  0  0  0  0  0  0  0  0  0
    7.1586    1.9914   -1.2339 C   0  0  0  0  0  0  0  0  0  0  0  0
    6.5580    4.0022    0.3917 C   0  0  0  0  0  0  0  0  0  0  0  0
    7.5343    3.1968   -1.5795 N   0  0  0  0  0  0  0  0  0  0  0  0
    7.2383    4.1513   -0.8159 C   0  0  0  0  0  0  0  0  0  0  0  0
    7.7006    5.4003   -1.2001 N   0  0  0  0  0  0  0  0  0  0  0  0
    8.1682    5.7342   -2.4355 C   0  0  0  0  0  0  0  0  0  0  0  0
    7.7232    6.4298   -0.3556 N   0  0  0  0  0  0  0  0  0  0  0  0
    8.5564    7.0365   -2.3367 C   0  0  0  0  0  0  0  0  0  0  0  0
    8.2572    7.3975   -1.0430 C   0  0  0  0  0  0  0  0  0  0  0  0
    9.0888    7.9327   -3.3940 C   0  0  0  0  0  0  0  0  0  0  0  0
    8.0330    8.9519   -3.8500 C   0  0  0  0  0  0  0  0  0  0  0  0
    8.5143    9.8638   -4.9774 C   0  0  0  0  0  0  0  0  0  0  0  0
    7.4118   10.8198   -5.4301 C   0  0  0  0  0  0  0  0  0  0  0  0
    7.8261   11.7176   -6.5948 C   0  0  0  0  0  0  0  0  0  0  0  0
    6.6667   12.6193   -7.0465 C   0  0  0  0  0  0  0  0  0  0  0  0
  2  1  1  0
  3  2  2  0
  4  1  2  0
  5  4  1  0
  5  3  1  0
  6  1  1  0
  7  2  1  0
  8  3  1  0
  9  5  2  0
 10  9  1  0
 11  9  1  0
 12 11  1  0
 13 12  1  0
 14 13  2  0
 15 13  1  0
 16 14  1  0
 17 15  2  0
 18 17  1  0
 18 16  2  0
 19 18  1  0
 20 19  1  0
 21 19  1  0
 22 20  2  0
 23 22  1  0
 23 21  2  0
 24 22  1  0
 25 24  1  0
 26 25  1  0
 27 26  1  0
 28 27  1  0
 29 28  1  0
M  CHG  2   4   1  10  -1
M  END
>  <SMILES>  (29) 
CCCCCCc1cnn(-c2ccc(CNC([O-])=C3[S+]=C(N)C(C)=C3N)cn2)c1

>  <scaffold>  (29) 
thiophene

$$$$

     RDKit          3D

 25 27  0  0  0  0  0  0  0  0999 V2000
   -0.0000    0.0000    0.0000 C   0  0  0  0  0  0  0  0  0  0  0  0
   -0.0000   -0.0000    1.3625 C   0  0  0  0  0  0  0  0  0  0  0  0
    1.2972    0.0000    1.9156 C   0  0  0  0  0  0  0  0  0  0  0  0
    1.6157    0.0000   -0.6536 S   0  0  0  0  0  0  0  0  0  0  0  0
    2.2971    0.0671    0.9169 C   0  0  0  0  0  0  0  0  0  0  0  0
   -1.2045   -0.0592   -0.8661 C   0  0  0  0  0  0  0  0  0  0  0  0
   -1.6895   -1.4148   -1.0475 N   0  0  0  0  0  0  0  0  0  0  0  0
   -2.8119   -1.8480   -0.4246 C   0  0  0  0  0  0  0  0  0  0  0  0
   -3.5688   -1.1164    0.1823 O   0  0  0  0  0  0  0  0  0  0  0  0
   -3.0916   -3.2977   -0.5814 C   0  0  0  0  0  0  0  0  0  0  0  0
   -2.1147   -4.2411   -0.8589 C   0  0  0  0  0  0  0  0  0  0  0  0
   -4.4299   -3.6748   -0.4000 C   0  0  0  0  0  0  0  0  0  0  0  0
   -2.3982   -5.5086   -0.9421 N   0  0  0  0  0  0  0  0  0  0  0  0
   -4.7287   -5.0174   -0.4872 C   0  0  0  0  0  0  0  0  0  0  0  0
   -3.6412   -5.9517   -0.7636 C   0  0  0  0  0  0  0  0  0  0  0  0
   -3.8992   -7.2817   -0.9083 N   0  0  0  0  0  0  0  0  0  0  0  0
   -3.0786   -8.3417   -1.2911 C   0  0  0  0  0  0  0  0  0  0  0  0
   -1.7156   -8.2200   -1.5578 C   0  0  0  0  0  0  0  0  0  0  0  0
   -3.6145   -9.6229   -1.4133 C   0  0  0  0  0  0  0  0  0  0  0  0
   -0.9950   -9.3598   -1.8787 C   0  0  0  0  0  0  0  0  0  0  0  0
   -2.8971  -10.7561   -1.7309 C   0  0  0  0  0  0  0  0  0  0  0  0
   -1.5492  -10.6368   -1.9536 C   0  0  0  0  0  0  0  0  0  0  0  0
   -0.8150  -11.7153   -2.3187 F   0  0  0  0  0  0  0  0  0  0  0  0
   -3.5284  -12.0984   -1.9021 C   0  0  0  0  0  0  0  0  0  0  0  0
   -3.9211  -12.3252   -3.3612 C   0  0  0  0  0  0  0  0  0  0  0  0
  2  1  2  0
  3  2  1  0
  4  1  1  0
  5  4  1  0
  5  3  2  0
  6  1  1  0
  7  6  1  0
  8  7  1  0
  9  8  2  0
 10  8  1  0
 11 10  2  0
 12 10  1  0
 13 11  1  0
 14 12  2  0
 15 13  2  0
 15 14  1  0
 16 15  1  0
 17 16  1  0
 18 17  2  0
 19 17  1  0
 20 18  1  0
 21 19  2  0
 22 21  1  0
 22 20  2  0
 23 22  1  0
 24 21  1  0
 25 24  1  0
M  END
>  <SMILES>  (30) 
CCc1cc(Nc2ccc(C(=O)NCc3cccs3)cn2)ccc1F

>  <scaffold>  (30) 
thiophene

$$$$

     RDKit          3D

 27 29  0  0  0  0  0  0  0  0999 V2000
   -0.0000   -0.0000   -0.0000 C   0  0  0  0  0  0  0  0  0  0  0  0
   -0.0000    0.0000    1.3704 C   0  0  0  0  0  0  0  0  0  0  0  0
    1.2898   -0.0000    1.9202 C   0  0  0  0  0  0  0  0  0  0  0  0
    1.6065    0.0000   -0.6499 S   0  0  0  0  0  0  0  0  0  0  0  0
    2.2879   -0.0671    0.9206 C   0  0  0  0  0  0  0  0  0  0  0  0
   -1.1840    0.0582   -0.8514 C   0  0  0  0  0  0  0  0  0  0  0  0
   -2.3111    0.1692   -0.4509 O   0  0  0  0  0  0  0  0  0  0  0  0
   -0.7801    0.0913   -2.1279 O   0  0  0  0  0  0  0  0  0  0  0  0
   -1.7821    0.2045   -3.1021 C   0  0  0  0  0  0  0  0  0  0  0  0
   -1.8093   -0.7519   -4.1051 C   0  0  0  0  0  0  0  0  0  0  0  0
   -2.5977    1.3343   -3.1480 C   0  0  0  0  0  0  0  0  0  0  0  0
   -2.8114   -0.7094   -5.0618 C   0  0  0  0  0  0  0  0  0  0  0  0
   -3.6182    1.3798   -4.1085 C   0  0  0  0  0  0  0  0  0  0  0  0
   -3.8142    0.2445   -4.9865 C   0  0  0  0  0  0  0  0  0  0  0  0
   -2.3743    2.3743   -2.2593 N   0  0  0  0  0  0  0  0  0  0  0  0
   -2.6119    3.7157   -2.4687 C   0  0  0  0  0  0  0  0  0  0  0  0
   -3.0554    4.1994   -3.4667 O   0  0  0  0  0  0  0  0  0  0  0  0
   -2.2001    4.3609   -1.3602 O   0  0  0  0  0  0  0  0  0  0  0  0
   -2.1944    5.7295   -1.1408 C   0  0  0  0  0  0  0  0  0  0  0  0
   -2.1124    6.1998    0.1606 C   0  0  0  0  0  0  0  0  0  0  0  0
   -2.2501    6.6745   -2.1642 C   0  0  0  0  0  0  0  0  0  0  0  0
   -2.0454    7.5182    0.4982 C   0  0  0  0  0  0  0  0  0  0  0  0
   -2.1833    8.0233   -1.8179 C   0  0  0  0  0  0  0  0  0  0  0  0
   -2.0045    8.4077   -0.5641 C   0  0  0  0  0  0  0  0  0  0  0  0
   -1.8778    9.8347   -0.1427 C   0  0  0  0  0  0  0  0  0  0  0  0
   -2.3187    9.1459   -3.1181 Cl  0  0  0  0  0  0  0  0  0  0  0  0
   -0.4090   10.2554   -0.1492 C   0  0  0  0  0  0  0  0  0  0  0  0
  2  1  1  0
  3  2  2  0
  4  1  1  0
  5  4  2  0
  5  3  1  0
  6  1  2  0
  7  6  1  0
  8  6  1  0
  9  8  1  0
 10  9  2  0
 11  9  1  0
 12 10  1  0
 13 11  2  0
 14 13  1  0
 14 12  2  0
 15 11  1  0
 16 15  1  0
 17 16  2  0
 18 16  1  0
 19 18  1  0
 20 19  2  0
 21 19  1  0
 22 20  1  0
 23 21  2  0
 24 23  1  0
 24 22  2  0
 25 24  1  0
 26 23  1  0
 27 25  1  0
M  CHG  2   4   1   7  -1
M  END
>  <SMILES>  (31) 
CCc1ccc(OC(=O)Nc2ccccc2OC([O-])=C2C=CC=[S+]2)cc1Cl

>  <scaffold>  (31) 
thiophene

$$$$

     RDKit          3D

 29 31  0  0  0  0  0  0  0  0999 V2000
   -0.0000   -0.0000   -0.0000 C   0  0  0  0  0  0  0  0  0  0  0  0
   -0.0000   -0.0000    1.3704 C   0  0  0  0  0  0  0  0  0  0  0  0
    1.5760    0.0000    2.0422 S   0  0  0  0  0  0  0  0  0  0  0  0
    1.3073    0.0000   -0.5288 C   0  0  0  0  0  0  0  0  0  0  0  0
    2.2750    0.0507    0.4401 C   0  0  0  0  0  0  0  0  0  0  0  0
   -1.2552    0.0000   -0.8089 C   0  0  0  0  0  0  0  0  0  0  0  0
    3.6790    0.1211    0.2518 C   0  0  0  0  0  0  0  0  0  0  0  0
    4.4952    0.1142    1.2370 N   0  0  0  0  0  0  0  0  0  0  0  0
    5.8032    0.2299    1.0150 N   0  0  0  0  0  0  0  0  0  0  0  0
    6.7127    0.1788    2.0282 C   0  0  0  0  0  0  0  0  0  0  0  0
    7.9674    0.3646    1.6223 N   0  0  0  0  0  0  0  0  0  0  0  0
    6.3660   -0.0590    3.3658 C   0  0  0  0  0  0  0  0  0  0  0  0
    8.9225    0.3868    2.5172 C   0  0  0  0  0  0  0  0  0  0  0  0
    7.3596   -0.0347    4.2978 C   0  0  0  0  0  0  0  0  0  0  0  0
    8.7132    0.2285    3.8702 C   0  0  0  0  0  0  0  0  0  0  0  0
    9.7335    0.3075    4.7697 O   0  0  0  0  0  0  0  0  0  0  0  0
   11.0100   -0.1462    4.4408 C   0  0  0  0  0  0  0  0  0  0  0  0
   11.2305   -1.3315    3.7729 C   0  0  0  0  0  0  0  0  0  0  0  0
   12.0981    0.5806    4.9217 C   0  0  0  0  0  0  0  0  0  0  0  0
   12.5280   -1.7681    3.5097 C   0  0  0  0  0  0  0  0  0  0  0  0
   13.3717    0.1448    4.6649 C   0  0  0  0  0  0  0  0  0  0  0  0
   13.6013   -1.0264    3.9779 C   0  0  0  0  0  0  0  0  0  0  0  0
   14.9026   -1.3198    3.7415 O   0  0  0  0  0  0  0  0  0  0  0  0
   15.2517   -2.3978    2.9294 C   0  0  2  0  0  0  0  0  0  0  0  0
   16.5456   -2.3507    2.6522 F   0  0  0  0  0  0  0  0  0  0  0  0
   14.5545   -2.3382    1.5712 C   0  0  0  0  0  0  0  0  0  0  0  0
   14.5020   -3.3454    0.9313 O   0  0  0  0  0  0  0  0  0  0  0  0
   14.1799   -1.1196    1.2133 O   0  0  0  0  0  0  0  0  0  0  0  0
   13.5707   -0.9247   -0.0525 C   0  0  0  0  0  0  0  0  0  0  0  0
  2  1  2  0
  3  2  1  0
  4  1  1  0
  5  4  2  0
  5  3  1  0
  6  1  1  0
  7  5  1  0
  8  7  2  0
  9  8  1  0
 10  9  1  0
 11 10  2  0
 12 10  1  0
 13 11  1  0
 14 12  2  0
 15 14  1  0
 15 13  2  0
 16 15  1  0
 17 16  1  0
 18 17  2  0
 19 17  1  0
 20 18  1  0
 21 19  2  0
 22 21  1  0
 22 20  2  0
 23 22  1  0
 24 23  1  0
 24 25  1  6
 26 24  1  0
 27 26  2  0
 28 26  1  0
 29 28  1  0
M  END
>  <SMILES>  (32) 
COC(=O)C(F)Oc1ccc(Oc2ccc(NN=Cc3cc(C)cs3)nc2)cc1

>  <scaffold>  (32) 
thiophene

$$$$

     RDKit          3D

 15 16  0  0  0  0  0  0  0  0999 V2000
    0.0000   -0.0000    0.0000 C   0  0  0  0  0  0  0  0  0  0  0  0
   -0.0000    0.0000    1.3548 C   0  0  0  0  0  0  0  0  0  0  0  0
    1.5868   -0.0000    2.0006 S   0  0  0  0  0  0  0  0  0  0  0  0
    1.3073   -0.0000   -0.5288 C   0  0  0  0  0  0  0  0  0  0  0  0
    2.3216    0.0498    0.3796 C   0  0  0  0  0  0  0  0  0  0  0  0
    3.6704    0.1176    0.1987 N   0  0  0  0  0  0  0  0  0  0  0  0
    4.5705    0.2136    1.1754 N   0  0  0  0  0  0  0  0  0  0  0  0
    5.8267    0.3208    0.9579 C   0  0  0  0  0  0  0  0  0  0  0  0
    6.8400    0.4802    1.9843 C   0  0  0  0  0  0  0  0  0  0  0  0
    8.1153    0.6333    1.6327 N   0  0  0  0  0  0  0  0  0  0  0  0
    6.4830    0.4653    3.3319 C   0  0  0  0  0  0  0  0  0  0  0  0
    9.1221    0.8391    2.4797 C   0  0  0  0  0  0  0  0  0  0  0  0
    7.5127    0.6767    4.1987 C   0  0  0  0  0  0  0  0  0  0  0  0
    8.8227    0.8996    3.8399 C   0  0  0  0  0  0  0  0  0  0  0  0
   10.3449    1.0280    2.0081 F   0  0  0  0  0  0  0  0  0  0  0  0
  2  1  2  0
  3  2  1  0
  4  1  1  0
  5  4  2  0
  5  3  1  0
  6  5  1  0
  7  6  1  0
  8  7  2  0
  9  8  1  0
 10  9  2  0
 11  9  1  0
 12 10  1  0
 13 11  2  0
 14 13  1  0
 14 12  2  0
 15 12  1  0
M  END
>  <SMILES>  (33) 
Fc1cccc(C=NNc2cccs2)n1

>  <scaffold>  (33) 
thiophene

$$$$

     RDKit          3D

 28 29  0  0  0  0  0  0  0  0999 V2000
   -0.0000   -0.0000   -0.0000 C   0  0  0  0  0  0  0  0  0  0  0  0
   -0.0000   -0.0000    1.3548 C   0  0  0  0  0  0  0  0  0  0  0  0
    1.6033   -0.0000    2.0383 S   0  0  0  0  0  0  0  0  0  0  0  0
    1.3223    0.0000   -0.5349 C   0  0  0  0  0  0  0  0  0  0  0  0
    2.2957    0.0510    0.4396 C   0  0  0  0  0  0  0  0  0  0  0  0
   -1.2254    0.0602    2.2359 C   0  0  0  0  0  0  0  0  0  0  0  0
    3.6600    0.1194    0.2566 N   0  0  0  0  0  0  0  0  0  0  0  0
    1.6728    0.0555   -1.8914 C   0  0  0  0  0  0  0  0  0  0  0  0
    2.0040    0.0999   -2.9960 N   0  0  0  0  0  0  0  0  0  0  0  0
    4.5190    0.2177    1.2996 C   0  0  0  0  0  0  0  0  0  0  0  0
    4.1683    0.1989    2.4484 O   0  0  0  0  0  0  0  0  0  0  0  0
   -2.3455    0.5900    1.5969 O   0  0  0  0  0  0  0  0  0  0  0  0
    5.7652    0.3199    0.8639 O   0  0  0  0  0  0  0  0  0  0  0  0
    6.7788    0.3752    1.8776 C   0  0  0  0  0  0  0  0  0  0  0  0
    7.1305   -0.9990    2.3710 C   0  0  0  0  0  0  0  0  0  0  0  0
    6.5746   -1.5227    3.5277 C   0  0  0  0  0  0  0  0  0  0  0  0
    8.0335   -1.7871    1.6746 C   0  0  0  0  0  0  0  0  0  0  0  0
    6.8920   -2.8147    3.9169 C   0  0  0  0  0  0  0  0  0  0  0  0
    8.3493   -3.0716    2.0615 C   0  0  0  0  0  0  0  0  0  0  0  0
    7.7575   -3.6357    3.1955 C   0  0  0  0  0  0  0  0  0  0  0  0
    8.0603   -4.9259    3.5121 O   0  0  0  0  0  0  0  0  0  0  0  0
    7.4555   -5.4740    4.6523 C   0  0  0  0  0  0  0  0  0  0  0  0
    7.9562   -4.8973    5.9756 C   0  0  0  0  0  0  0  0  0  0  0  0
    7.3069   -4.8955    6.9863 O   0  0  0  0  0  0  0  0  0  0  0  0
    9.1530   -4.3816    5.8521 O   0  0  0  0  0  0  0  0  0  0  0  0
    9.7552   -3.8583    7.0346 C   0  0  0  0  0  0  0  0  0  0  0  0
   10.3902   -4.9711    7.8669 C   0  0  0  0  0  0  0  0  0  0  0  0
   10.9713   -4.3673    9.1444 C   0  0  0  0  0  0  0  0  0  0  0  0
  2  1  2  0
  3  2  1  0
  4  1  1  0
  5  4  2  0
  5  3  1  0
  6  2  1  0
  7  5  1  0
  8  4  1  0
  9  8  3  0
 10  7  1  0
 11 10  2  0
 12  6  1  0
 13 10  1  0
 14 13  1  0
 15 14  1  0
 16 15  2  0
 17 15  1  0
 18 16  1  0
 19 17  2  0
 20 19  1  0
 20 18  2  0
 21 20  1  0
 22 21  1  0
 23 22  1  0
 24 23  2  0
 25 23  1  0
 26 25  1  0
 27 26  1  0
 28 27  1  0
M  END
>  <SMILES>  (34) 
CCCOC(=O)COc1ccc(COC(=O)Nc2sc(CO)cc2C#N)cc1

>  <scaffold>  (34) 
thiophene

$$$$

     RDKit          3D

 27 29  0  0  0  0  0  0  0  0999 V2000
    0.0000   -0.0000    0.0000 C   0  0  0  0  0  0  0  0  0  0  0  0
    0.0000   -0.0000    1.3625 C   0  0  0  0  0  0  0  0  0  0  0  0
    1.2972   -0.0000    1.9156 C   0  0  0  0  0  0  0  0  0  0  0  0
    1.5973   -0.0000   -0.6462 S   0  0  0  0  0  0  0  0  0  0  0  0
    2.2827   -0.0675    0.9333 C   0  0  0  0  0  0  0  0  0  0  0  0
   -1.1976    0.0588   -0.8612 C   0  0  0  0  0  0  0  0  0  0  0  0
   -2.3119    0.2241   -0.4055 O   0  0  0  0  0  0  0  0  0  0  0  0
   -0.9338   -0.0072   -2.1726 N   0  0  0  0  0  0  0  0  0  0  0  0
   -1.9630    0.0911   -3.1790 C   0  0  0  0  0  0  0  0  0  0  0  0
   -1.7068    1.2438   -4.0651 C   0  0  0  0  0  0  0  0  0  0  0  0
   -0.6370    1.4229   -4.7572 N   0  0  0  0  0  0  0  0  0  0  0  0
   -2.5933    2.2603   -4.1921 O   0  0  0  0  0  0  0  0  0  0  0  0
   -0.8193    2.6262   -5.3699 C   0  0  0  0  0  0  0  0  0  0  0  0
   -1.9882    3.1327   -5.0337 C   0  0  0  0  0  0  0  0  0  0  0  0
   -2.9261    4.5613   -5.4669 S   0  0  0  0  0  6  0  0  0  0  0  0
   -4.0680    4.7733   -4.6248 O   0  0  0  0  0  0  0  0  0  0  0  0
   -1.9637    5.6125   -5.6308 O   0  0  0  0  0  0  0  0  0  0  0  0
   -3.4771    4.1661   -7.1053 C   0  0  0  0  0  0  0  0  0  0  0  0
   -4.3411    3.1047   -7.3249 C   0  0  0  0  0  0  0  0  0  0  0  0
   -3.0494    4.8913   -8.1667 C   0  0  0  0  0  0  0  0  0  0  0  0
   -4.6989    2.8085   -8.6058 C   0  0  0  0  0  0  0  0  0  0  0  0
   -3.4092    4.5927   -9.4548 C   0  0  0  0  0  0  0  0  0  0  0  0
   -4.2473    3.5129   -9.7309 C   0  0  0  0  0  0  0  0  0  0  0  0
   -4.5941    3.1497  -10.9975 N   0  0  0  0  0  0  0  0  0  0  0  0
   -4.3394    3.8566  -12.2196 C   0  0  0  0  0  0  0  0  0  0  0  0
   -5.2630    5.0700  -12.3146 C   0  0  0  0  0  0  0  0  0  0  0  0
   -6.7206    4.6468  -12.4896 C   0  0  0  0  0  0  0  0  0  0  0  0
  2  1  1  0
  3  2  2  0
  4  1  1  0
  5  4  2  0
  5  3  1  0
  6  1  2  0
  7  6  1  0
  8  6  1  0
  9  8  1  0
 10  9  1  0
 11 10  2  0
 12 10  1  0
 13 11  1  0
 14 13  2  0
 14 12  1  0
 15 14  1  0
 16 15  2  0
 17 15  2  0
 18 15  1  0
 19 18  2  0
 20 18  1  0
 21 19  1  0
 22 20  2  0
 23 22  1  0
 23 21  2  0
 24 23  1  0
 25 24  1  0
 26 25  1  0
 27 26  1  0
M  CHG  2   4   1   7  -1
M  END
>  <SMILES>  (35) 
CCCNc1ccc(S(=O)(=O)c2cnc(CNC([O-])=C3C=CC=[S+]3)o2)cc1

>  <scaffold>  (35) 
thiophene

$$$$

     RDKit          3D

 32 34  0  0  0  0  0  0  0  0999 V2000
   -0.0000   -0.0000    0.0000 C   0  0  0  0  0  0  0  0  0  0  0  0
    0.0000    0.0000    1.3782 C   0  0  0  0  0  0  0  0  0  0  0  0
    1.5851   -0.0000    2.0540 S   0  0  0  0  0  0  0  0  0  0  0  0
    1.2924   -0.0000   -0.5228 C   0  0  0  0  0  0  0  0  0  0  0  0
    2.3243    0.0507    0.4013 C   0  0  0  0  0  0  0  0  0  0  0  0
   -1.5783    0.0000    2.3953 Br  0  0  0  0  0  0  0  0  0  0  0  0
    3.7283    0.1212    0.2130 C   0  0  0  0  0  0  0  0  0  0  0  0
    4.5414    0.2115    1.1966 N   0  0  0  0  0  0  0  0  0  0  0  0
    5.8668    0.3397    1.2139 N   0  0  0  0  0  0  0  0  0  0  0  0
    6.6891    0.3385    0.0782 C   0  0  0  0  0  0  0  0  0  0  0  0
    6.4184    0.1736   -1.0805 O   0  0  0  0  0  0  0  0  0  0  0  0
    7.9467    0.5414    0.4919 N   0  0  0  0  0  0  0  0  0  0  0  0
    8.9970    0.4176   -0.5018 C   0  0  0  0  0  0  0  0  0  0  0  0
    9.7264   -0.8584   -0.2911 C   0  0  0  0  0  0  0  0  0  0  0  0
    9.4092   -2.1293   -0.7196 C   0  0  0  0  0  0  0  0  0  0  0  0
   10.8410   -0.8888    0.4785 N   0  0  0  0  0  0  0  0  0  0  0  0
   10.3703   -2.9423   -0.2189 N   0  0  0  0  0  0  0  0  0  0  0  0
   11.2227   -2.1641    0.5125 C   0  0  0  0  0  0  0  0  0  0  0  0
   10.4956   -4.3614   -0.4471 C   0  0  0  0  0  0  0  0  0  0  0  0
   12.4283   -2.6197    1.1972 C   0  0  0  0  0  0  0  0  0  0  0  0
   13.5931   -1.9173    0.9749 C   0  0  0  0  0  0  0  0  0  0  0  0
   12.3670   -3.6928    2.0726 C   0  0  0  0  0  0  0  0  0  0  0  0
   14.7666   -2.3400    1.5610 C   0  0  0  0  0  0  0  0  0  0  0  0
   13.5467   -4.1206    2.6615 C   0  0  0  0  0  0  0  0  0  0  0  0
   14.8446   -3.4624    2.3842 C   0  0  0  0  0  0  0  0  0  0  0  0
   13.4461   -5.2018    3.4716 O   0  0  0  0  0  0  0  0  0  0  0  0
   15.9401   -4.0031    2.9698 O   0  0  0  0  0  0  0  0  0  0  0  0
   17.1424   -3.3202    2.6924 C   0  0  0  0  0  0  0  0  0  0  0  0
   18.1698   -4.0986    3.5126 C   0  0  0  0  0  0  0  0  0  0  0  0
   19.4890   -3.3613    3.2881 C   0  0  0  0  0  0  0  0  0  0  0  0
   20.4597   -4.1371    4.1620 C   0  0  0  0  0  0  0  0  0  0  0  0
   21.8140   -3.4689    3.9298 C   0  0  0  0  0  0  0  0  0  0  0  0
  2  1  2  0
  3  2  1  0
  4  1  1  0
  5  4  2  0
  5  3  1  0
  6  2  1  0
  7  5  1  0
  8  7  2  0
  9  8  1  0
 10  9  1  0
 11 10  2  0
 12 10  1  0
 13 12  1  0
 14 13  1  0
 15 14  2  0
 16 14  1  0
 17 15  1  0
 18 17  1  0
 18 16  2  0
 19 17  1  0
 20 18  1  0
 21 20  2  0
 22 20  1  0
 23 21  1  0
 24 22  2  0
 25 24  1  0
 25 23  2  0
 26 24  1  0
 27 25  1  0
 28 27  1  0
 29 28  1  0
 30 29  1  0
 31 30  1  0
 32 31  1  0
M  END
>  <SMILES>  (36) 
CCCCCOc1ccc(-c2nc(CNC(=O)NN=Cc3ccc(Br)s3)cn2C)cc1O

>  <scaffold>  (36) 
thiophene

$$$$

     RDKit          3D

 15 16  0  0  0  0  0  0  0  0999 V2000
    0.0000   -0.0000   -0.0000 C   0  0  0  0  0  0  0  0  0  0  0  0
   -0.0000   -0.0000    1.3704 C   0  0  0  0  0  0  0  0  0  0  0  0
    1.2987   -0.0000    1.8989 C   0  0  0  0  0  0  0  0  0  0  0  0
    1.6065   -0.0000   -0.6499 S   0  0  0  0  0  0  0  0  0  0  0  0
    2.2879    0.0671    0.9206 C   0  0  0  0  0  0  0  0  0  0  0  0
   -1.1135    0.0000   -0.8915 C   0  0  0  0  0  0  0  0  0  0  0  0
   -0.9923   -0.0502   -2.1715 N   0  0  0  0  0  0  0  0  0  0  0  0
   -2.7572    0.0000   -0.2266 S   0  0  0  0  0  0  0  0  0  0  0  0
   -2.1810    0.0153   -2.7851 C   0  0  0  0  0  0  0  0  0  0  0  0
   -3.2183    0.0649   -1.8652 C   0  0  0  0  0  0  0  0  0  0  0  0
   -2.2552    0.0312   -4.2510 C   0  0  0  0  0  0  0  0  0  0  0  0
   -3.2674    0.1352   -4.9023 O   0  0  0  0  0  0  0  0  0  0  0  0
   -1.0404   -0.0259   -4.7937 O   0  0  0  0  0  0  0  0  0  0  0  0
   -0.9757    0.0380   -6.2090 C   0  0  0  0  0  0  0  0  0  0  0  0
   -1.1281   -1.2933   -6.8680 C   0  0  0  0  0  0  0  0  0  0  0  0
  2  1  2  0
  3  2  1  0
  4  1  1  0
  5  4  1  0
  5  3  2  0
  6  1  1  0
  7  6  2  0
  8  6  1  0
  9  7  1  0
 10  9  1  0
 10  8  2  0
 11  9  2  0
 12 11  1  0
 13 11  1  0
 14 13  1  0
 15 14  1  0
M  CHG  2   8   1  12  -1
M  END
>  <SMILES>  (37) 
CCOC([O-])=C1C=[S+]C(c2cccs2)=N1

>  <scaffold>  (37) 
thiophene

$$$$

     RDKit          3D

 27 29  0  0  0  0  0  0  0  0999 V2000
    0.0000    0.0000    0.0000 C   0  0  0  0  0  0  0  0  0  0  0  0
   -0.0000   -0.0000    1.3625 C   0  0  0  0  0  0  0  0  0  0  0  0
    1.3061   -0.0000    1.8942 C   0  0  0  0  0  0  0  0  0  0  0  0
    1.6065   -0.0000   -0.6499 S   0  0  0  0  0  0  0  0  0  0  0  0
    2.2958    0.0679    0.9387 C   0  0  0  0  0  0  0  0  0  0  0  0
   -1.1657   -0.0000   -0.9333 C   0  0  0  0  0  0  0  0  0  0  0  0
   -2.2715   -0.6628   -0.3423 O   0  0  0  0  0  0  0  0  0  0  0  0
    3.7451    0.1557    1.2051 C   0  0  0  0  0  0  0  0  0  0  0  0
    4.1942    0.0859    2.3472 O   0  0  0  0  0  0  0  0  0  0  0  0
    4.4889    0.2905    0.0715 N   0  0  0  0  0  0  0  0  0  0  0  0
   -2.1957   -2.0039   -0.1661 C   0  0  0  0  0  0  0  0  0  0  0  0
   -1.1058   -2.6364   -0.5476 N   0  0  0  0  0  0  0  0  0  0  0  0
   -3.2709   -2.7016    0.3616 C   0  0  0  0  0  0  0  0  0  0  0  0
   -1.0564   -3.9386   -0.3130 C   0  0  0  0  0  0  0  0  0  0  0  0
   -3.2580   -4.0793    0.5138 C   0  0  0  0  0  0  0  0  0  0  0  0
   -2.0364   -4.6833    0.2896 C   0  0  0  0  0  0  0  0  0  0  0  0
    5.8782    0.3444   -0.0308 C   0  0  0  0  0  0  0  0  0  0  0  0
    6.2964    0.5312   -1.2651 N   0  0  0  0  0  0  0  0  0  0  0  0
    6.7870    0.1346    1.0377 C   0  0  0  0  0  0  0  0  0  0  0  0
    7.5859    0.5480   -1.4895 N   0  0  0  0  0  0  0  0  0  0  0  0
    8.1210    0.1617    0.8033 C   0  0  0  0  0  0  0  0  0  0  0  0
    8.4508    0.3299   -0.5315 C   0  0  0  0  0  0  0  0  0  0  0  0
    9.7680    0.2902   -0.7229 O   0  0  0  0  0  0  0  0  0  0  0  0
   -4.2828   -4.8910    0.9746 N   0  0  0  0  0  0  0  0  0  0  0  0
   10.1552    0.5087   -2.0783 C   0  0  0  0  0  0  0  0  0  0  0  0
    9.9903   -0.7315   -2.9553 C   0  0  0  0  0  0  0  0  0  0  0  0
   10.8946   -1.8668   -2.4780 C   0  0  0  0  0  0  0  0  0  0  0  0
  2  1  1  0
  3  2  2  0
  4  1  2  0
  5  4  1  0
  5  3  1  0
  6  1  1  0
  7  6  1  0
  8  5  2  0
  9  8  1  0
 10  8  1  0
 11  7  1  0
 12 11  2  0
 13 11  1  0
 14 12  1  0
 15 13  2  0
 16 15  1  0
 16 14  2  0
 17 10  1  0
 18 17  2  0
 19 17  1  0
 20 18  1  0
 21 19  2  0
 22 21  1  0
 22 20  2  0
 23 22  1  0
 24 15  1  0
 25 23  1  0
 26 25  1  0
 27 26  1  0
M  CHG  2   4   1   9  -1
M  END
>  <SMILES>  (38) 
CCCOc1ccc(NC([O-])=C2C=CC(COc3cc(N)ccn3)=[S+]2)nn1

>  <scaffold>  (38) 
thiophene

$$$$

     RDKit          3D

 18 20  0  0  0  0  0  0  0  0999 V2000
    0.0000   -0.0000    0.0000 C   0  0  0  0  0  0  0  0  0  0  0  0
   -0.0000    0.0000    1.3704 C   0  0  0  0  0  0  0  0  0  0  0  0
    1.2898    0.0000    1.9202 C   0  0  0  0  0  0  0  0  0  0  0  0
    1.6065    0.0000   -0.6499 S   0  0  0  0  0  0  0  0  0  0  0  0
    2.2879    0.0671    0.9206 C   0  0  0  0  0  0  0  0  0  0  0  0
   -1.1263    0.0000   -0.9018 C   0  0  0  0  0  0  0  0  0  0  0  0
   -2.3354    0.0594   -0.3469 N   0  0  0  0  0  0  0  0  0  0  0  0
   -0.9943   -0.0547   -2.2966 C   0  0  0  0  0  0  0  0  0  0  0  0
   -3.3720    0.1084   -1.1201 N   0  0  0  0  0  0  0  0  0  0  0  0
   -2.0921   -0.0030   -3.1152 C   0  0  0  0  0  0  0  0  0  0  0  0
   -3.3109    0.1033   -2.4428 C   0  0  0  0  0  0  0  0  0  0  0  0
   -4.7315    0.2331   -3.4268 S   0  0  0  0  0  0  0  0  0  0  0  0
   -5.9830    0.4144   -2.1404 C   0  0  0  0  0  0  0  0  0  0  0  0
   -6.2584    1.6826   -1.6765 C   0  0  0  0  0  0  0  0  0  0  0  0
   -6.6214   -0.7132   -1.6708 C   0  0  0  0  0  0  0  0  0  0  0  0
   -7.1855    1.7666   -0.6601 C   0  0  0  0  0  0  0  0  0  0  0  0
   -7.5540   -0.6289   -0.6487 C   0  0  0  0  0  0  0  0  0  0  0  0
   -7.7869    0.6442   -0.1539 C   0  0  0  0  0  0  0  0  0  0  0  0
  2  1  2  0
  3  2  1  0
  4  1  1  0
  5  4  1  0
  5  3  2  0
  6  1  1  0
  7  6  2  0
  8  6  1  0
  9  7  1  0
 10  8  2  0
 11 10  1  0
 11  9  2  0
 12 11  1  0
 13 12  1  0
 14 13  2  0
 15 13  1  0
 16 14  1  0
 17 15  2  0
 18 17  1  0
 18 16  2  0
M  END
>  <SMILES>  (39) 
c1ccc(Sc2ccc(-c3cccs3)nn2)cc1

>  <scaffold>  (39) 
thiophene

$$$$

     RDKit          3D

 29 31  0  0  0  0  0  0  0  0999 V2000
    0.0000    0.0000    0.0000 C   0  0  0  0  0  0  0  0  0  0  0  0
   -0.0000   -0.0000    1.3704 C   0  0  0  0  0  0  0  0  0  0  0  0
    1.2972   -0.0000    1.9234 C   0  0  0  0  0  0  0  0  0  0  0  0
    1.6065    0.0000   -0.6499 S   0  0  0  0  0  0  0  0  0  0  0  0
    2.2918   -0.0675    0.9296 C   0  0  0  0  0  0  0  0  0  0  0  0
   -1.1840    0.0582   -0.8514 C   0  0  0  0  0  0  0  0  0  0  0  0
   -2.4452   -0.5383   -0.5542 C   0  0  0  0  0  0  0  0  0  0  0  0
   -1.0969    0.7366   -2.0570 C   0  0  0  0  0  0  0  0  0  0  0  0
   -3.5075   -0.4197   -1.3356 N   0  0  0  0  0  0  0  0  0  0  0  0
   -2.2087    0.8607   -2.8755 C   0  0  0  0  0  0  0  0  0  0  0  0
   -3.4166    0.2875   -2.4604 C   0  0  0  0  0  0  0  0  0  0  0  0
   -2.4741   -1.2358    0.5799 O   0  0  0  0  0  0  0  0  0  0  0  0
   -3.7001   -1.8937    0.8942 C   0  0  0  0  0  0  0  0  0  0  0  0
   -3.8926   -3.1825    0.0966 C   0  0  0  0  0  0  0  0  0  0  0  0
   -4.5319    0.2933   -3.1881 O   0  0  0  0  0  0  0  0  0  0  0  0
   -4.5448    0.9665   -4.4364 C   0  0  0  0  0  0  0  0  0  0  0  0
   -3.8385    0.1603   -5.5252 C   0  0  0  0  0  0  0  0  0  0  0  0
   -3.9277    0.9019   -6.8581 C   0  0  0  0  0  0  0  0  0  0  0  0
   -3.2821    0.1095   -7.9938 C   0  0  0  0  0  0  0  0  0  0  0  0
   -3.4458    0.8672   -9.3104 C   0  0  0  0  0  0  0  0  0  0  0  0
   -2.8701    0.0981  -10.4760 C   0  0  0  0  0  0  0  0  0  0  0  0
   -3.6643   -0.2262  -11.5749 C   0  0  0  0  0  0  0  0  0  0  0  0
   -1.5296   -0.2216  -10.4934 C   0  0  0  0  0  0  0  0  0  0  0  0
   -3.1966   -0.9683  -12.6380 C   0  0  0  0  0  0  0  0  0  0  0  0
   -1.0570   -0.9708  -11.5597 C   0  0  0  0  0  0  0  0  0  0  0  0
   -1.8803   -1.4274  -12.6432 C   0  0  0  0  0  0  0  0  0  0  0  0
   -1.3210   -2.2107  -13.6077 O   0  0  0  0  0  0  0  0  0  0  0  0
   -2.0815   -2.5732  -14.7588 C   0  0  0  0  0  0  0  0  0  0  0  0
   -2.1764   -1.5148  -15.6734 O   0  0  0  0  0  0  0  0  0  0  0  0
  2  1  2  0
  3  2  1  0
  4  1  1  0
  5  4  1  0
  5  3  2  0
  6  1  1  0
  7  6  2  0
  8  6  1  0
  9  7  1  0
 10  8  2  0
 11 10  1  0
 11  9  2  0
 12  7  1  0
 13 12  1  0
 14 13  1  0
 15 11  1  0
 16 15  1  0
 17 16  1  0
 18 17  1  0
 19 18  1  0
 20 19  1  0
 21 20  1  0
 22 21  2  0
 23 21  1  0
 24 22  1  0
 25 23  2  0
 26 25  1  0
 26 24  2  0
 27 26  1  0
 28 27  1  0
 29 28  1  0
M  END
>  <SMILES>  (40) 
CCOc1nc(OCCCCCc2ccc(OCO)cc2)ccc1-c1cccs1

>  <scaffold>  (40) 
thiophene

$$$$

     RDKit          3D

 14 14  0  0  0  0  0  0  0  0999 V2000
    0.0000    0.0000   -0.0000 C   0  0  0  0  0  0  0  0  0  0  0  0
    0.0000   -0.0000    1.3625 C   0  0  0  0  0  0  0  0  0  0  0  0
    1.6143   -0.0000    2.0196 S   0  0  0  0  0  0  0  0  0  0  0  0
    1.3299    0.0000   -0.5380 C   0  0  0  0  0  0  0  0  0  0  0  0
    2.3032    0.0510    0.4365 C   0  0  0  0  0  0  0  0  0  0  0  0
   -1.2481   -0.0000   -0.8042 C   0  0  0  0  0  0  0  0  0  0  0  0
   -1.2184   -0.0599    2.2386 C   0  0  0  0  0  0  0  0  0  0  0  0
    3.6598    0.1190    0.2546 N   0  0  0  0  0  0  0  0  0  0  0  0
    1.6108   -0.0559   -1.9188 C   0  0  0  0  0  0  0  0  0  0  0  0
    1.8232   -0.1012   -3.0322 N   0  0  0  0  0  0  0  0  0  0  0  0
    4.5391    0.1116    1.3159 C   0  0  0  0  0  0  0  0  0  0  0  0
    4.1355    0.0442    2.4526 O   0  0  0  0  0  0  0  0  0  0  0  0
    5.8352    0.2389    0.9427 N   0  0  0  0  0  0  0  0  0  0  0  0
    6.9123    0.1968    1.9017 C   0  0  0  0  0  0  0  0  0  0  0  0
  2  1  2  0
  3  2  1  0
  4  1  1  0
  5  4  2  0
  5  3  1  0
  6  1  1  0
  7  2  1  0
  8  5  1  0
  9  4  1  0
 10  9  3  0
 11  8  1  0
 12 11  2  0
 13 11  1  0
 14 13  1  0
M  END
>  <SMILES>  (41) 
CNC(=O)Nc1sc(C)c(C)c1C#N

>  <scaffold>  (41) 
thiophene

$$$$

     RDKit          3D

 22 24  0  0  0  0  0  0  0  0999 V2000
   -0.0000    0.0000   -0.0000 C   0  0  0  0  0  0  0  0  0  0  0  0
    0.0000   -0.0000    1.3625 C   0  0  0  0  0  0  0  0  0  0  0  0
    1.6143   -0.0000    2.0196 S   0  0  0  0  0  0  0  0  0  0  0  0
    1.3223    0.0000   -0.5349 C   0  0  0  0  0  0  0  0  0  0  0  0
    2.2901   -0.0507    0.4340 C   0  0  0  0  0  0  0  0  0  0  0  0
   -1.2184   -0.0599    2.2386 C   0  0  0  0  0  0  0  0  0  0  0  0
   -1.1398   -0.1123   -0.7380 N   0  0  0  0  0  0  0  0  0  0  0  0
    1.6249    0.0602   -2.0224 C   0  0  0  0  0  0  0  0  0  0  0  0
    3.6389   -0.1183    0.2531 N   0  0  0  0  0  0  0  0  0  0  0  0
    2.3103   -1.1889   -2.4974 C   0  0  0  0  0  0  0  0  0  0  0  0
    3.5608   -1.2403   -2.8543 N   0  0  0  0  0  0  0  0  0  0  0  0
    1.6512   -2.3796   -2.5636 N   0  0  0  0  0  0  0  0  0  0  0  0
    3.7531   -2.5639   -3.1529 C   0  0  0  0  0  0  0  0  0  0  0  0
    2.6045   -3.2599   -2.9795 C   0  0  0  0  0  0  0  0  0  0  0  0
    5.0746   -3.1458   -3.5656 C   0  0  2  0  0  0  0  0  0  0  0  0
    5.5610   -2.4581   -4.8402 C   0  0  0  0  0  0  0  0  0  0  0  0
    4.8259   -4.6077   -3.8528 C   0  0  0  0  0  0  0  0  0  0  0  0
    5.3276   -5.5606   -2.9925 C   0  0  0  0  0  0  0  0  0  0  0  0
    4.1112   -4.9730   -4.9926 C   0  0  0  0  0  0  0  0  0  0  0  0
    5.0353   -6.8710   -3.2670 C   0  0  0  0  0  0  0  0  0  0  0  0
    3.8175   -6.2908   -5.2698 C   0  0  0  0  0  0  0  0  0  0  0  0
    4.2770   -7.3180   -4.3378 C   0  0  0  0  0  0  0  0  0  0  0  0
  2  1  2  0
  3  2  1  0
  4  1  1  0
  5  4  2  0
  5  3  1  0
  6  2  1  0
  7  1  1  0
  8  4  1  0
  9  5  1  0
 10  8  1  0
 11 10  2  0
 12 10  1  0
 13 11  1  0
 14 13  2  0
 14 12  1  0
 15 13  1  0
 15 16  1  6
 17 15  1  0
 18 17  2  0
 19 17  1  0
 20 18  1  0
 21 19  2  0
 22 21  1  0
 22 20  2  0
M  END
>  <SMILES>  (42) 
Cc1sc(N)c(Cc2nc(C(C)c3ccccc3)c[nH]2)c1N

>  <scaffold>  (42) 
thiophene

$$$$

     RDKit          3D

 24 26  0  0  0  0  0  0  0  0999 V2000
   -0.0000    0.0000    0.0000 C   0  0  0  0  0  0  0  0  0  0  0  0
    0.0000    0.0000    1.3625 C   0  0  0  0  0  0  0  0  0  0  0  0
    1.5868    0.0000    2.0084 S   0  0  0  0  0  0  0  0  0  0  0  0
    1.2998    0.0000   -0.5258 C   0  0  0  0  0  0  0  0  0  0  0  0
    2.3200   -0.0501    0.3878 C   0  0  0  0  0  0  0  0  0  0  0  0
    3.7647   -0.1227    0.1940 C   0  0  0  0  0  0  0  0  0  0  0  0
    4.2196   -0.2027   -0.9224 O   0  0  0  0  0  0  0  0  0  0  0  0
    4.4541   -0.1027    1.3511 O   0  0  0  0  0  0  0  0  0  0  0  0
    5.8324   -0.2147    1.4466 C   0  0  0  0  0  0  0  0  0  0  0  0
    6.5802   -1.0304    0.6118 C   0  0  0  0  0  0  0  0  0  0  0  0
    6.4619    0.4867    2.4631 C   0  0  0  0  0  0  0  0  0  0  0  0
    7.9377   -1.0978    0.8397 C   0  0  0  0  0  0  0  0  0  0  0  0
    7.8267    0.4127    2.6942 C   0  0  0  0  0  0  0  0  0  0  0  0
    8.6213   -0.4118    1.8426 C   0  0  0  0  0  0  0  0  0  0  0  0
    9.9687   -0.5184    1.9351 O   0  0  0  0  0  0  0  0  0  0  0  0
   10.7725   -0.0062    2.9854 C   0  0  0  0  0  0  0  0  0  0  0  0
   10.6184   -0.8672    4.2381 C   0  0  0  0  0  0  0  0  0  0  0  0
   11.5478   -0.3042    5.3245 C   0  0  0  0  0  0  0  0  0  0  0  0
   11.3912   -1.0951    6.6120 C   0  0  0  0  0  0  0  0  0  0  0  0
   10.8545   -0.5182    7.7524 C   0  0  0  0  0  0  0  0  0  0  0  0
   11.7701   -2.4116    6.6471 C   0  0  0  0  0  0  0  0  0  0  0  0
   10.6866   -1.2890    8.8825 C   0  0  0  0  0  0  0  0  0  0  0  0
   11.6021   -3.1777    7.7709 C   0  0  0  0  0  0  0  0  0  0  0  0
   11.0297   -2.6385    8.9501 C   0  0  0  0  0  0  0  0  0  0  0  0
  2  1  1  0
  3  2  2  0
  4  1  2  0
  5  4  1  0
  5  3  1  0
  6  5  2  0
  7  6  1  0
  8  6  1  0
  9  8  1  0
 10  9  2  0
 11  9  1  0
 12 10  1  0
 13 11  2  0
 14 13  1  0
 14 12  2  0
 15 14  1  0
 16 15  1  0
 17 16  1  0
 18 17  1  0
 19 18  1  0
 20 19  2  0
 21 19  1  0
 22 20  1  0
 23 21  2  0
 24 22  2  0
 24 23  1  0
M  CHG  2   3   1   7  -1
M  END
>  <SMILES>  (43) 
[O-]C(Oc1ccc(OCCCc2ccccc2)cc1)=C1C=CC=[S+]1

>  <scaffold>  (43) 
thiophene

$$$$

     RDKit          3D

 23 25  0  0  0  0  0  0  0  0999 V2000
   -0.0000   -0.0000   -0.0000 C   0  0  0  0  0  0  0  0  0  0  0  0
    0.0000    0.0000    1.3782 C   0  0  0  0  0  0  0  0  0  0  0  0
    1.2806    0.0000    1.9492 C   0  0  0  0  0  0  0  0  0  0  0  0
    1.6065    0.0000   -0.6499 S   0  0  0  0  0  0  0  0  0  0  0  0
    2.2918    0.0675    0.9296 C   0  0  0  0  0  0  0  0  0  0  0  0
   -1.2059   -0.0000   -0.7771 C   0  0  0  0  0  0  0  0  0  0  0  0
   -2.3877    0.0581   -0.2348 N   0  0  0  0  0  0  0  0  0  0  0  0
   -1.2559   -0.0500   -2.1614 N   0  0  0  0  0  0  0  0  0  0  0  0
   -3.3025   -0.0130   -1.2209 N   0  0  0  0  0  0  0  0  0  0  0  0
   -2.6081   -0.0797   -2.3822 C   0  0  0  0  0  0  0  0  0  0  0  0
   -3.1287   -0.1863   -3.6368 N   0  0  0  0  0  0  0  0  0  0  0  0
    3.9835    0.1700    1.2406 Cl  0  0  0  0  0  0  0  0  0  0  0  0
   -0.2512   -0.1113   -3.1720 C   0  0  0  0  0  0  0  0  0  0  0  0
   -4.5345    0.0740   -3.8314 C   0  0  0  0  0  0  0  0  0  0  0  0
   -4.8865    1.5296   -3.9450 C   0  0  0  0  0  0  0  0  0  0  0  0
   -4.0271    2.5496   -3.8235 C   0  0  0  0  0  0  0  0  0  0  0  0
   -4.3227    3.9526   -3.8724 C   0  0  0  0  0  0  0  0  0  0  0  0
   -3.2699    4.8737   -3.7783 C   0  0  0  0  0  0  0  0  0  0  0  0
   -5.6117    4.4468   -3.9980 C   0  0  0  0  0  0  0  0  0  0  0  0
   -3.5074    6.2154   -3.7710 C   0  0  0  0  0  0  0  0  0  0  0  0
   -5.8500    5.7963   -3.9912 C   0  0  0  0  0  0  0  0  0  0  0  0
   -4.8153    6.7354   -3.8574 C   0  0  0  0  0  0  0  0  0  0  0  0
   -5.0007    8.0847   -3.8955 N   0  0  0  0  0  0  0  0  0  0  0  0
  2  1  2  0
  3  2  1  0
  4  1  1  0
  5  4  1  0
  5  3  2  0
  6  1  1  0
  7  6  2  0
  8  6  1  0
  9  7  1  0
 10  9  2  0
 10  8  1  0
 11 10  1  0
 12  5  1  0
 13  8  1  0
 14 11  1  0
 15 14  1  0
 16 15  2  0
 17 16  1  0
 18 17  2  0
 19 17  1  0
 20 18  1  0
 21 19  2  0
 22 21  1  0
 22 20  2  0
 23 22  1  0
M  END
>  <SMILES>  (44) 
Cn1c(NCC=Cc2ccc(N)cc2)nnc1-c1ccc(Cl)s1

>  <scaffold>  (44) 
thiophene

$$$$

     RDKit          3D

 23 25  0  0  0  0  0  0  0  0999 V2000
    0.0000   -0.0000    0.0000 C   0  0  0  0  0  0  0  0  0  0  0  0
    0.0000    0.0000    1.3782 C   0  0  0  0  0  0  0  0  0  0  0  0
    1.2898   -0.0000    1.9281 C   0  0  0  0  0  0  0  0  0  0  0  0
    1.6065   -0.0000   -0.6499 S   0  0  0  0  0  0  0  0  0  0  0  0
    2.2879    0.0671    0.9206 C   0  0  0  0  0  0  0  0  0  0  0  0
   -1.1199    0.0000   -0.8966 C   0  0  0  0  0  0  0  0  0  0  0  0
   -0.9323    0.0503   -2.1538 N   0  0  0  0  0  0  0  0  0  0  0  0
   -1.9032    0.0033   -3.0975 N   0  0  0  0  0  0  0  0  0  0  0  0
   -3.2471   -0.1047   -2.9002 C   0  0  0  0  0  0  0  0  0  0  0  0
   -3.8450   -0.1227   -1.8505 O   0  0  0  0  0  0  0  0  0  0  0  0
   -3.9683   -0.1817   -4.2449 C   0  0  0  0  0  0  0  0  0  0  0  0
   -5.3505    0.0656   -3.9938 N   0  0  0  0  0  0  0  0  0  0  0  0
   -6.1860   -0.8104   -3.4955 N   0  0  0  0  0  0  0  0  0  0  0  0
   -5.9248    1.2144   -4.3158 N   0  0  0  0  0  0  0  0  0  0  0  0
   -7.3159   -0.2247   -3.3652 N   0  0  0  0  0  0  0  0  0  0  0  0
   -7.1564    1.0259   -3.8676 C   0  0  0  0  0  0  0  0  0  0  0  0
   -8.1674    1.9056   -4.0034 N   0  0  0  0  0  0  0  0  0  0  0  0
   -9.4374    1.6070   -3.4267 C   0  0  0  0  0  0  0  0  0  0  0  0
  -10.5089    1.3054   -4.2394 C   0  0  0  0  0  0  0  0  0  0  0  0
   -9.5339    1.6210   -2.0439 C   0  0  0  0  0  0  0  0  0  0  0  0
  -11.7344    1.0706   -3.6358 C   0  0  0  0  0  0  0  0  0  0  0  0
  -10.7661    1.3844   -1.4363 C   0  0  0  0  0  0  0  0  0  0  0  0
  -11.8887    1.0740   -2.2582 C   0  0  0  0  0  0  0  0  0  0  0  0
  2  1  2  0
  3  2  1  0
  4  1  1  0
  5  4  1  0
  5  3  2  0
  6  1  1  0
  7  6  2  0
  8  7  1  0
  9  8  1  0
 10  9  2  0
 11  9  1  0
 12 11  1  0
 13 12  1  0
 14 12  1  0
 15 13  2  0
 16 15  1  0
 16 14  2  0
 17 16  1  0
 18 17  1  0
 19 18  2  0
 20 18  1  0
 21 19  1  0
 22 20  2  0
 23 22  1  0
 23 21  2  0
M  END
>  <SMILES>  (45) 
O=C(Cn1nnc(Nc2ccccc2)n1)NN=Cc1cccs1

>  <scaffold>  (45) 
thiophene

$$$$

     RDKit          3D

 25 27  0  0  0  0  0  0  0  0999 V2000
    0.0000    0.0000   -0.0000 C   0  0  0  0  0  0  0  0  0  0  0  0
   -0.0000   -0.0000    1.3625 C   0  0  0  0  0  0  0  0  0  0  0  0
    1.5868    0.0000    2.0084 S   0  0  0  0  0  0  0  0  0  0  0  0
    1.2998   -0.0000   -0.5258 C   0  0  0  0  0  0  0  0  0  0  0  0
    2.2676   -0.0507    0.4431 C   0  0  0  0  0  0  0  0  0  0  0  0
    3.7058   -0.0079    0.2548 C   0  0  0  0  0  0  0  0  0  0  0  0
    4.1147    0.0927   -1.0167 N   0  0  0  0  0  0  0  0  0  0  0  0
    4.5985   -0.1227    1.3299 C   0  0  0  0  0  0  0  0  0  0  0  0
    5.3808    0.1900   -1.3022 N   0  0  0  0  0  0  0  0  0  0  0  0
    5.9471   -0.0133    1.0287 C   0  0  0  0  0  0  0  0  0  0  0  0
    6.3030    0.1942   -0.3733 C   0  0  0  0  0  0  0  0  0  0  0  0
    6.9463   -0.1827    2.1371 C   0  0  0  0  0  0  0  0  0  0  0  0
    7.9365   -0.8519    2.0154 O   0  0  0  0  0  0  0  0  0  0  0  0
    6.6241    0.4895    3.2498 O   0  0  0  0  0  0  0  0  0  0  0  0
    7.3899    0.5435    4.3755 C   0  0  0  0  0  0  0  0  0  0  0  0
    6.8785    1.2242    5.4094 N   0  0  0  0  0  0  0  0  0  0  0  0
    8.6288   -0.0224    4.5263 C   0  0  0  0  0  0  0  0  0  0  0  0
    7.4716    1.4177    6.5097 N   0  0  0  0  0  0  0  0  0  0  0  0
    9.2734    0.1866    5.7265 C   0  0  0  0  0  0  0  0  0  0  0  0
    8.6730    0.9188    6.6551 C   0  0  0  0  0  0  0  0  0  0  0  0
    9.2322    1.1674    8.0079 C   0  0  0  0  0  0  0  0  0  0  0  0
    7.9403    0.3852   -0.8028 Cl  0  0  0  0  0  0  0  0  0  0  0  0
   10.9432   -0.4826    5.9620 S   0  0  0  0  0  0  0  0  0  0  0  0
   11.0282   -1.1115    7.2670 O   0  0  0  0  0  0  0  0  0  0  0  0
   11.2753   -1.3017    4.8216 O   0  0  0  0  0  0  0  0  0  0  0  0
  2  1  2  0
  3  2  1  0
  4  1  1  0
  5  4  2  0
  5  3  1  0
  6  5  1  0
  7  6  2  0
  8  6  1  0
  9  7  1  0
 10  8  2  0
 11  9  2  0
 11 10  1  0
 12 10  1  0
 13 12  2  0
 14 12  1  0
 15 14  1  0
 16 15  2  0
 17 15  1  0
 18 16  2  0
 19 17  2  0
 20 19  1  0
 20 18  1  0
 21 20  2  0
 22 11  1  0
 23 19  1  0
 24 23  1  0
 25 23  1  0
M  CHG  4  16   1  23   1  24  -1  25  -1
M  END
>  <SMILES>  (46) 
C=C1N=[N+]=C(OC(=O)c2cc(-c3cccs3)nnc2Cl)C=C1[S+]([O-])[O-]

>  <scaffold>  (46) 
thiophene

$$$$

     RDKit          3D

 31 34  0  0  0  0  0  0  0  0999 V2000
    0.0000    0.0000   -0.0000 C   0  0  0  0  0  0  0  0  0  0  0  0
   -0.0000    0.0000    1.3548 C   0  0  0  0  0  0  0  0  0  0  0  0
    1.5960   -0.0000    2.0043 S   0  0  0  0  0  0  0  0  0  0  0  0
    1.3073   -0.0000   -0.5288 C   0  0  0  0  0  0  0  0  0  0  0  0
    2.3274   -0.0501    0.3848 C   0  0  0  0  0  0  0  0  0  0  0  0
    3.7412   -0.0082    0.1997 C   0  0  0  0  0  0  0  0  0  0  0  0
    4.2894    0.0928   -0.9765 N   0  0  0  0  0  0  0  0  0  0  0  0
    4.6085   -0.0179    1.2504 O   0  0  0  0  0  0  0  0  0  0  0  0
    5.5927    0.1479   -0.6727 N   0  0  0  0  0  0  0  0  0  0  0  0
    5.8093    0.0859    0.6149 C   0  0  0  0  0  0  0  0  0  0  0  0
    7.3114    0.0544    1.4784 S   0  0  0  0  0  0  0  0  0  0  0  0
    6.7683    0.0689    3.2203 C   0  0  0  0  0  0  0  0  0  0  0  0
    6.2622    1.4273    3.6449 C   0  0  0  0  0  0  0  0  0  0  0  0
    6.2124    2.4041    2.9357 O   0  0  0  0  0  0  0  0  0  0  0  0
    5.7999    1.4731    4.9258 N   0  0  0  0  0  0  0  0  0  0  0  0
    5.2580    2.5913    5.4655 C   0  0  0  0  0  0  0  0  0  0  0  0
    4.7652    2.6662    6.6597 N   0  0  0  0  0  0  0  0  0  0  0  0
    5.1303    4.0398    4.5226 S   0  0  0  0  0  0  0  0  0  0  0  0
    4.2429    3.8677    6.9377 C   0  0  0  0  0  0  0  0  0  0  0  0
    4.3445    4.7765    5.8928 C   0  0  0  0  0  0  0  0  0  0  0  0
    3.7444    6.4308    5.7855 S   0  0  2  0  0  6  0  0  0  0  0  0
    4.5145    7.1166    4.8000 O   0  0  0  0  0  0  0  0  0  0  0  0
    3.6322    6.9381    7.1405 O   0  0  0  0  0  0  0  0  0  0  0  0
    2.0797    6.2662    5.1105 C   0  0  0  0  0  0  0  0  0  0  0  0
    1.7838    5.4801    4.0278 C   0  0  0  0  0  0  0  0  0  0  0  0
    1.1072    7.0524    5.7084 C   0  0  0  0  0  0  0  0  0  0  0  0
    0.4975    5.4238    3.5143 C   0  0  0  0  0  0  0  0  0  0  0  0
   -0.1701    6.9968    5.1937 C   0  0  0  0  0  0  0  0  0  0  0  0
   -0.4836    6.2241    4.0785 C   0  0  0  0  0  0  0  0  0  0  0  0
   -1.7675    6.2953    3.6279 O   0  0  0  0  0  0  0  0  0  0  0  0
   -2.1349    5.5090    2.5165 C   0  0  0  0  0  0  0  0  0  0  0  0
  2  1  2  0
  3  2  1  0
  4  1  1  0
  5  4  2  0
  5  3  1  0
  6  5  1  0
  7  6  2  0
  8  6  1  0
  9  7  1  0
 10  9  2  0
 10  8  1  0
 11 10  1  0
 12 11  1  0
 13 12  1  0
 14 13  2  0
 15 13  1  0
 16 15  1  0
 17 16  1  0
 18 16  2  0
 19 17  2  0
 20 18  1  0
 20 19  1  0
 21 20  2  0
 22 21  2  0
 21 23  1  1
 24 21  1  0
 25 24  2  0
 26 24  1  0
 27 25  1  0
 28 26  2  0
 29 28  1  0
 29 27  2  0
 30 29  1  0
 31 30  1  0
M  CHG  2  18   1  23  -1
M  END
>  <SMILES>  (47) 
COc1ccc(S(=O)([O-])=C2C=NC(NC(=O)CSc3nnc(-c4cccs4)o3)=[S+]2)cc1

>  <scaffold>  (47) 
thiophene

$$$$

     RDKit          3D

 14 15  0  0  0  0  0  0  0  0999 V2000
    0.0000    0.0000   -0.0000 C   0  0  0  0  0  0  0  0  0  0  0  0
   -0.0000    0.0000    1.3625 C   0  0  0  0  0  0  0  0  0  0  0  0
    1.5868   -0.0000    2.0084 S   0  0  0  0  0  0  0  0  0  0  0  0
    1.2998   -0.0000   -0.5258 C   0  0  0  0  0  0  0  0  0  0  0  0
    2.3200    0.0501    0.3878 C   0  0  0  0  0  0  0  0  0  0  0  0
    3.7665    0.0072    0.1984 C   0  0  0  0  0  0  0  0  0  0  0  0
    4.2725   -0.0860   -0.8871 O   0  0  0  0  0  0  0  0  0  0  0  0
    4.4555    0.0296    1.3646 O   0  0  0  0  0  0  0  0  0  0  0  0
    5.8051   -0.0527    1.5329 C   0  0  0  0  0  0  0  0  0  0  0  0
    6.5068   -0.4567    0.4852 N   0  0  0  0  0  0  0  0  0  0  0  0
    6.3804    0.2182    2.7736 C   0  0  0  0  0  0  0  0  0  0  0  0
    7.8223   -0.5683    0.7106 C   0  0  0  0  0  0  0  0  0  0  0  0
    7.7497    0.0988    3.0064 C   0  0  0  0  0  0  0  0  0  0  0  0
    8.5064   -0.3210    1.8628 C   0  0  0  0  0  0  0  0  0  0  0  0
  2  1  1  0
  3  2  2  0
  4  1  2  0
  5  4  1  0
  5  3  1  0
  6  5  2  0
  7  6  1  0
  8  6  1  0
  9  8  1  0
 10  9  2  0
 11  9  1  0
 12 10  1  0
 13 11  2  0
 14 13  1  0
 14 12  2  0
M  CHG  2   3   1   7  -1
M  END
>  <SMILES>  (48) 
[O-]C(Oc1ccccn1)=C1C=CC=[S+]1

>  <scaffold>  (48) 
thiophene

$$$$

     RDKit          3D

 21 23  0  0  0  0  0  0  0  0999 V2000
    0.0000   -0.0000   -0.0000 C   0  0  0  0  0  0  0  0  0  0  0  0
    0.0000    0.0000    1.3625 C   0  0  0  0  0  0  0  0  0  0  0  0
    1.3222    0.0000    1.8755 C   0  0  0  0  0  0  0  0  0  0  0  0
    1.6343   -0.0000   -0.6611 S   0  0  0  0  0  0  0  0  0  0  0  0
    2.3157    0.0671    0.9093 C   0  0  0  0  0  0  0  0  0  0  0  0
    3.6232    0.1463    1.1497 N   0  0  0  0  0  0  0  0  0  0  0  0
    4.0207    0.2416    2.3776 C   0  0  0  0  0  0  0  0  0  0  0  0
    3.1383    0.2041    3.4151 N   0  0  0  0  0  0  0  0  0  0  0  0
    1.7542    0.0657    3.3230 C   0  0  0  0  0  0  0  0  0  0  0  0
    1.0624   -0.0029    4.3196 O   0  0  0  0  0  0  0  0  0  0  0  0
   -1.1590   -0.0000   -0.9280 C   0  0  0  0  0  0  0  0  0  0  0  0
    5.6800    0.4199    2.8448 S   0  0  0  0  0  0  0  0  0  0  0  0
    6.4157    0.4789    1.1531 C   0  0  0  0  0  0  0  0  0  0  0  0
    6.2484    1.8235    0.5460 C   0  0  0  0  0  0  0  0  0  0  0  0
    5.4343    2.0277   -0.5571 C   0  0  0  0  0  0  0  0  0  0  0  0
    6.9052    2.9281    1.1267 C   0  0  0  0  0  0  0  0  0  0  0  0
    5.2714    3.3021   -1.0559 C   0  0  0  0  0  0  0  0  0  0  0  0
    6.7392    4.2095    0.6249 C   0  0  0  0  0  0  0  0  0  0  0  0
    5.8843    4.4091   -0.5096 C   0  0  0  0  0  0  0  0  0  0  0  0
    7.6841    2.6363    2.1764 O   0  0  0  0  0  0  0  0  0  0  0  0
    8.4178    3.7262    2.7727 C   0  0  0  0  0  0  0  0  0  0  0  0
  2  1  2  0
  3  2  1  0
  4  1  1  0
  5  4  2  0
  5  3  1  0
  6  5  1  0
  7  6  2  0
  8  7  1  0
  9  8  1  0
  9  3  2  0
 10  9  1  0
 11  1  1  0
 12  7  1  0
 13 12  1  0
 14 13  1  0
 15 14  2  0
 16 14  1  0
 17 15  1  0
 18 16  2  0
 19 17  2  0
 19 18  1  0
 20 16  1  0
 21 20  1  0
M  CHG  2   4   1  10  -1
M  END
>  <SMILES>  (49) 
COc1ccccc1CSc1nc2[s+]c(C)cc-2c([O-])[nH]1

>  <scaffold>  (49) 
thiophene

$$$$

     RDKit          3D

 27 28  0  0  0  0  0  0  0  0999 V2000
    0.0000   -0.0000    0.0000 C   0  0  0  0  0  0  0  0  0  0  0  0
    0.0000   -0.0000    1.3625 C   0  0  0  0  0  0  0  0  0  0  0  0
    1.6143    0.0000    2.0196 S   0  0  0  0  0  0  0  0  0  0  0  0
    1.3148   -0.0000   -0.5319 C   0  0  0  0  0  0  0  0  0  0  0  0
    2.3350   -0.0501    0.3817 C   0  0  0  0  0  0  0  0  0  0  0  0
   -1.4567    0.0000    2.3012 Cl  0  0  0  0  0  0  0  0  0  0  0  0
   -1.2184    0.0599   -0.8761 C   0  0  0  0  0  0  0  0  0  0  0  0
    3.6726   -0.1151    0.1307 N   0  0  0  0  0  0  0  0  0  0  0  0
    4.6944    0.1207    1.1097 C   0  0  0  0  0  0  0  0  0  0  0  0
    4.8196    1.5803    1.3990 C   0  0  0  0  0  0  0  0  0  0  0  0
    4.6645    2.2821    2.5566 C   0  0  0  0  0  0  0  0  0  0  0  0
    5.1577    2.4335    0.4340 O   0  0  0  0  0  0  0  0  0  0  0  0
    4.8557    3.6139    2.1914 C   0  0  0  0  0  0  0  0  0  0  0  0
    5.1509    3.6917    0.9364 C   0  0  0  0  0  0  0  0  0  0  0  0
    5.5402    4.8167    0.1067 C   0  0  0  0  0  0  0  0  0  0  0  0
    5.5252    5.9783    0.4383 O   0  0  0  0  0  0  0  0  0  0  0  0
    5.8729    4.4090   -1.1250 O   0  0  0  0  0  0  0  0  0  0  0  0
    6.3284    5.4193   -2.0230 C   0  0  0  0  0  0  0  0  0  0  0  0
    7.8065    5.7332   -1.7969 C   0  0  0  0  0  0  0  0  0  0  0  0
    8.2295    6.8558   -2.7430 C   0  0  0  0  0  0  0  0  0  0  0  0
    9.7171    7.1709   -2.5944 C   0  0  0  0  0  0  0  0  0  0  0  0
   10.0762    8.3327   -3.5193 C   0  0  0  0  0  0  0  0  0  0  0  0
   11.5687    8.6521   -3.4484 C   0  0  0  0  0  0  0  0  0  0  0  0
   11.8806    9.7678   -4.4176 C   0  0  0  0  0  0  0  0  0  0  0  0
   12.2853    9.5809   -5.5480 O   0  0  0  0  0  0  0  0  0  0  0  0
   11.5935   11.0031   -3.9412 N   0  0  0  0  0  0  0  0  0  0  0  0
   11.6922   12.1305   -4.7960 N   0  0  0  0  0  0  0  0  0  0  0  0
  2  1  2  0
  3  2  1  0
  4  1  1  0
  5  4  2  0
  5  3  1  0
  6  2  1  0
  7  1  1  0
  8  5  1  0
  9  8  1  0
 10  9  1  0
 11 10  2  0
 12 10  1  0
 13 11  1  0
 14 13  2  0
 14 12  1  0
 15 14  1  0
 16 15  2  0
 17 15  1  0
 18 17  1  0
 19 18  1  0
 20 19  1  0
 21 20  1  0
 22 21  1  0
 23 22  1  0
 24 23  1  0
 25 24  2  0
 26 24  1  0
 27 26  1  0
M  END
>  <SMILES>  (50) 
Cc1cc(NCc2ccc(C(=O)OCCCCCCC(=O)NN)o2)sc1Cl

>  <scaffold>  (50) 
thiophene

$$$$
