
     RDKit          3D

 31 33  0  0  0  0  0  0  0  0999 V2000
    0.0000    0.0000    0.0000 S   0  0  0  0  0  0  0  0  0  0  0  0
    0.0000    0.0000    1.6649 C   0  0  0  0  0  0  0  0  0  0  0  0
    1.3229    0.0000    2.1532 C   0  0  0  0  0  0  0  0  0  0  0  0
    1.7216    0.0000   -0.0718 C   0  0  0  0  0  0  0  0  0  0  0  0
    2.2482   -0.0519    1.1420 C   0  0  0  0  0  0  0  0  0  0  0  0
   -1.1008    0.0000    2.5462 C   0  0  0  0  0  0  0  0  0  0  0  0
   -2.4581    0.0667    2.3165 C   0  0  0  0  0  0  0  0  0  0  0  0
   -3.1011    0.2983    1.0270 C   0  0  0  0  0  0  0  0  0  0  0  0
   -2.5536    0.5782   -0.0130 O   0  0  0  0  0  0  0  0  0  0  0  0
   -4.4865    0.2654    1.0599 N   0  0  0  0  0  0  0  0  0  0  0  0
   -5.1670    0.4378   -0.2007 C   0  0  0  0  0  0  0  0  0  0  0  0
   -5.2785   -0.6396   -1.0783 C   0  0  0  0  0  0  0  0  0  0  0  0
   -5.7173    1.6571   -0.4978 C   0  0  0  0  0  0  0  0  0  0  0  0
   -5.9042   -0.4107   -2.3120 C   0  0  0  0  0  0  0  0  0  0  0  0
   -6.3266    1.8805   -1.6959 C   0  0  0  0  0  0  0  0  0  0  0  0
   -6.3878    0.8698   -2.6161 C   0  0  0  0  0  0  0  0  0  0  0  0
   -5.9928   -1.4275   -3.2264 N   0  0  0  0  0  0  0  0  0  0  0  0
   -7.0064    1.1743   -3.9215 C   0  0  0  0  0  0  0  0  0  0  0  0
   -6.5450   -1.2392   -4.4491 C   0  0  0  0  0  0  0  0  0  0  0  0
   -7.3957    2.2732   -4.2386 O   0  0  0  0  0  0  0  0  0  0  0  0
   -7.0733    0.1151   -4.8132 N   0  0  0  0  0  0  0  0  0  0  0  0
   -6.5717   -2.4668   -5.5169 S   0  0  0  0  0  0  0  0  0  0  0  0
   -5.2496    0.0969    2.1856 C   0  0  0  0  0  0  0  0  0  0  0  0
   -6.4827    0.1311    2.1059 O   0  0  0  0  0  0  0  0  0  0  0  0
   -4.7556   -1.9749   -0.6935 C   0  0  0  0  0  0  0  0  0  0  0  0
   -4.5544   -0.0590    3.4402 C   0  0  0  0  0  0  0  0  0  0  0  0
   -5.2828   -0.2816    4.5984 C   0  0  0  0  0  0  0  0  0  0  0  0
   -6.5338    0.0981    4.8895 N   0  0  0  0  0  0  0  0  0  0  0  0
   -7.0099   -0.5688    6.0972 C   0  0  0  0  0  0  0  0  0  0  0  0
   -4.6274   -0.9584    5.7680 C   0  0  0  0  0  0  0  0  0  0  0  0
   -8.4965   -0.8538    5.9687 C   0  0  0  0  0  0  0  0  0  0  0  0
  1  2  1  0
  1  4  1  0
  2  3  1  0
  2  6  1  0
  3  5  2  0
  4  5  2  0
  6  7  2  3
  7  8  1  0
  8  9  2  0
  8 10  1  0
 10 11  1  0
 10 23  1  0
 11 12  2  0
 11 13  1  0
 12 14  1  0
 12 25  1  0
 13 15  2  0
 14 16  2  0
 14 17  1  0
 15 16  1  0
 16 18  1  0
 17 19  1  0
 18 20  2  0
 18 21  1  0
 19 21  1  0
 19 22  1  0
 23 24  2  0
 23 26  1  0
 26 27  2  3
 27 28  1  0
 27 30  1  0
 28 29  1  0
 29 31  1  0
M  END

$$$$

     RDKit          3D

 31 34  0  0  0  0  0  0  0  0999 V2000
    0.0000    0.0000    0.0000 S   0  0  0  0  0  0  0  0  0  0  0  0
    0.0000    0.0000    1.6841 C   0  0  0  0  0  0  0  0  0  0  0  0
    1.3230    0.0000    2.1236 C   0  0  0  0  0  0  0  0  0  0  0  0
    1.6730    0.0000   -0.0698 C   0  0  0  0  0  0  0  0  0  0  0  0
    2.2974    0.0546    1.1845 C   0  0  0  0  0  0  0  0  0  0  0  0
    2.3471   -0.0531   -1.2617 C   0  0  0  0  0  0  0  0  0  0  0  0
    1.4894   -0.1232   -2.7659 S   0  0  0  0  0  0  0  0  0  0  0  0
    3.0539   -0.2262   -3.5939 C   0  0  0  0  0  0  0  0  0  0  0  0
    4.3749   -0.1488   -2.7118 S   0  0  0  0  0  0  0  0  0  0  0  0
    2.9741   -0.3677   -4.9785 C   0  0  0  0  0  0  0  0  0  0  0  0
    3.9381   -0.5333   -5.9495 C   0  0  0  0  0  0  0  0  0  0  0  0
    3.7791   -0.0053   -1.5392 C   0  0  0  0  0  0  0  0  0  0  0  0
    4.6826    0.0940   -0.7433 O   0  0  0  0  0  0  0  0  0  0  0  0
    3.4259   -0.5866   -7.3151 C   0  0  0  0  0  0  0  0  0  0  0  0
    4.1999   -0.0001   -8.3043 C   0  0  0  0  0  0  0  0  0  0  0  0
    2.2099   -1.2312   -7.6575 C   0  0  0  0  0  0  0  0  0  0  0  0
    3.7830   -0.0685   -9.6079 C   0  0  0  0  0  0  0  0  0  0  0  0
    1.7336   -1.2129   -8.9761 C   0  0  0  0  0  0  0  0  0  0  0  0
    2.6145   -0.6992  -10.0058 C   0  0  0  0  0  0  0  0  0  0  0  0
    1.5417   -1.8661   -6.6541 O   0  0  0  0  0  0  0  0  0  0  0  0
    0.5820   -1.7192   -9.4790 O   0  0  0  0  0  0  0  0  0  0  0  0
    0.3583   -2.5846   -6.8762 C   0  0  0  0  0  0  0  0  0  0  0  0
   -0.4385   -2.2100   -8.6116 C   0  0  0  0  0  0  0  0  0  0  0  0
   -1.3582   -1.1224   -8.1089 C   0  0  0  0  0  0  0  0  0  0  0  0
   -0.8600    0.1161   -7.7662 C   0  0  0  0  0  0  0  0  0  0  0  0
   -2.7083   -1.3773   -8.0000 C   0  0  0  0  0  0  0  0  0  0  0  0
   -1.7400    1.0717   -7.2602 C   0  0  0  0  0  0  0  0  0  0  0  0
   -3.5885   -0.4218   -7.4942 C   0  0  0  0  0  0  0  0  0  0  0  0
   -3.0819    0.8621   -7.0779 C   0  0  0  0  0  0  0  0  0  0  0  0
   -4.9039   -0.5328   -7.3908 O   0  0  0  0  0  0  0  0  0  0  0  0
   -5.4875   -1.7898   -7.6515 C   0  0  0  0  0  0  0  0  0  0  0  0
  1  2  1  0
  1  4  1  0
  2  3  1  0
  3  5  2  0
  4  5  1  0
  4  6  2  3
  6  7  1  0
  6 12  1  0
  7  8  1  0
  8  9  1  0
  8 10  1  0
  9 12  1  0
 10 11  2  3
 11 14  1  0
 12 13  2  0
 14 15  2  0
 14 16  1  0
 15 17  1  0
 16 18  2  0
 16 20  1  0
 17 19  2  0
 18 19  1  0
 18 21  1  0
 20 22  1  0
 21 23  1  0
 23 24  1  0
 24 25  2  0
 24 26  1  0
 25 27  1  0
 26 28  2  0
 27 29  2  0
 28 29  1  0
 28 30  1  0
 30 31  1  0
M  END

$$$$

     RDKit          3D

 32 34  0  0  0  0  0  0  0  0999 V2000
    0.0000    0.0000    0.0000 C   0  0  0  0  0  0  0  0  0  0  0  0
    0.0000    0.0000    1.6459 S   0  0  0  0  0  0  0  0  0  0  0  0
    1.6603    0.0000    1.7690 C   0  0  0  0  0  0  0  0  0  0  0  0
    1.1568    0.0000   -0.5965 C   0  0  0  0  0  0  0  0  0  0  0  0
    2.1993   -0.0546    0.4472 C   0  0  0  0  0  0  0  0  0  0  0  0
    1.4859   -0.0521   -1.8702 O   0  0  0  0  0  0  0  0  0  0  0  0
    3.4734   -0.0125    0.0890 N   0  0  0  0  0  0  0  0  0  0  0  0
    4.1264    0.0782   -1.1303 N   0  0  0  0  0  0  0  0  0  0  0  0
    5.5066    0.1596   -1.2287 C   0  0  0  0  0  0  0  0  0  0  0  0
    5.9894    0.1363   -0.0987 O   0  0  0  0  0  0  0  0  0  0  0  0
    6.2426    0.2039   -2.4883 C   0  0  0  0  0  0  0  0  0  0  0  0
    7.6347    0.3416   -2.7217 C   0  0  0  0  0  0  0  0  0  0  0  0
    5.3456    0.0956   -3.5711 C   0  0  0  0  0  0  0  0  0  0  0  0
    8.2304    0.3162   -3.9907 C   0  0  0  0  0  0  0  0  0  0  0  0
    5.9980    0.0834   -4.7761 C   0  0  0  0  0  0  0  0  0  0  0  0
    7.3062    0.1395   -5.0193 C   0  0  0  0  0  0  0  0  0  0  0  0
    9.6967    0.5118   -4.2964 C   0  0  0  0  0  0  0  0  0  0  0  0
    9.9675    1.9972   -4.6258 C   0  0  0  0  0  0  0  0  0  0  0  0
    9.5767    2.8682   -3.4552 C   0  0  0  0  0  0  0  0  0  0  0  0
    8.4623    3.2713   -3.2582 O   0  0  0  0  0  0  0  0  0  0  0  0
   10.5960    3.0888   -2.6518 O   0  0  0  0  0  0  0  0  0  0  0  0
   10.4059   -0.4504   -5.2760 C   0  0  0  0  0  0  0  0  0  0  0  0
    8.4624    0.5227   -1.5230 C   0  0  0  0  0  0  0  0  0  0  0  0
    8.6619   -0.4703   -0.5650 C   0  0  0  0  0  0  0  0  0  0  0  0
    9.1906    1.7289   -1.4664 C   0  0  0  0  0  0  0  0  0  0  0  0
    9.4213   -0.2336    0.5896 C   0  0  0  0  0  0  0  0  0  0  0  0
    9.9524    1.9677   -0.3234 C   0  0  0  0  0  0  0  0  0  0  0  0
    9.9301    1.0394    0.7945 C   0  0  0  0  0  0  0  0  0  0  0  0
   10.7077    3.2689   -0.1904 C   0  0  0  0  0  0  0  0  0  0  0  0
   11.8066   -0.3965   -5.3067 O   0  0  0  0  0  0  0  0  0  0  0  0
    8.0856   -1.8478   -0.7252 C   0  0  0  0  0  0  0  0  0  0  0  0
    9.7087   -1.2776    1.6179 C   0  0  0  0  0  0  0  0  0  0  0  0
  1  2  1  0
  1  4  2  0
  2  3  1  0
  3  5  1  0
  4  5  1  0
  4  6  1  0
  5  7  2  3
  7  8  1  0
  8  9  1  0
  9 10  2  0
  9 11  1  0
 11 12  1  0
 11 13  2  0
 12 14  2  0
 12 23  1  0
 13 15  1  0
 14 16  1  0
 14 17  1  0
 15 16  2  0
 17 18  1  0
 17 22  1  0
 18 19  1  0
 19 20  2  0
 19 21  1  0
 22 30  1  0
 23 24  2  0
 23 25  1  0
 24 26  1  0
 24 31  1  0
 25 27  2  0
 26 28  2  0
 26 32  1  0
 27 28  1  0
 27 29  1  0
M  END

$$$$

     RDKit          3D

 30 31  0  0  0  0  0  0  0  0999 V2000
    0.0000    0.0000    0.0000 C   0  0  0  0  0  0  0  0  0  0  0  0
    0.0000    0.0000    1.4763 C   0  0  0  0  0  0  0  0  0  0  0  0
    1.2766    0.0000    1.9958 C   0  0  0  0  0  0  0  0  0  0  0  0
    1.2487    0.0000   -0.5051 C   0  0  0  0  0  0  0  0  0  0  0  0
    2.3643   -0.0627    0.7420 S   0  0  0  0  0  0  0  0  0  0  0  0
    1.8604    0.0575    3.3414 C   0  0  0  0  0  0  0  0  0  0  0  0
    1.2272    0.1824    4.3627 O   0  0  0  0  0  0  0  0  0  0  0  0
    3.1783   -0.0270    3.2453 O   0  0  0  0  0  0  0  0  0  0  0  0
    3.9392    0.0678    4.4577 C   0  0  0  0  0  0  0  0  0  0  0  0
    4.0009    1.5510    4.8877 C   0  0  0  0  0  0  0  0  0  0  0  0
    4.9183    2.2872    4.6118 O   0  0  0  0  0  0  0  0  0  0  0  0
    5.3128   -0.5419    4.2364 C   0  0  0  0  0  0  0  0  0  0  0  0
   -1.1375   -0.0559    2.2942 C   0  0  0  0  0  0  0  0  0  0  0  0
   -2.0597   -0.1467    2.9597 N   0  0  0  0  0  0  0  0  0  0  0  0
    2.8970    1.9777    5.5471 N   0  0  0  0  0  0  0  0  0  0  0  0
   -1.2339    0.0000   -0.7951 C   0  0  0  0  0  0  0  0  0  0  0  0
   -2.1214   -1.0815   -0.6188 C   0  0  0  0  0  0  0  0  0  0  0  0
   -1.5444    1.0237   -1.6516 C   0  0  0  0  0  0  0  0  0  0  0  0
   -3.3084   -1.0124   -1.3619 C   0  0  0  0  0  0  0  0  0  0  0  0
   -2.7656    1.0030   -2.3565 C   0  0  0  0  0  0  0  0  0  0  0  0
   -3.5720    0.0212   -2.1846 C   0  0  0  0  0  0  0  0  0  0  0  0
   -3.1298    1.9988   -3.1622 N   0  0  0  0  0  0  0  0  0  0  0  0
    2.5254    3.3758    5.6607 C   0  0  0  0  0  0  0  0  0  0  0  0
   -4.4043    2.0484   -3.8715 C   0  0  0  0  0  0  0  0  0  0  0  0
   -1.8312   -2.1723    0.2399 C   0  0  0  0  0  0  0  0  0  0  0  0
   -1.5084   -3.0030    0.9523 N   0  0  0  0  0  0  0  0  0  0  0  0
   -2.3671    3.2039   -3.4302 C   0  0  0  0  0  0  0  0  0  0  0  0
   -3.2289    4.0338   -4.3521 C   0  0  0  0  0  0  0  0  0  0  0  0
    1.6400    3.6905    4.4891 C   0  0  0  0  0  0  0  0  0  0  0  0
    0.3589    3.9066    4.5667 C   0  0  0  0  0  0  0  0  0  0  0  0
  1  2  1  0
  1  4  2  0
  1 16  1  0
  2  3  2  0
  2 13  1  0
  3  5  1  0
  3  6  1  0
  4  5  1  0
  6  7  2  0
  6  8  1  0
  8  9  1  0
  9 10  1  0
  9 12  1  0
 10 11  2  0
 10 15  1  0
 13 14  3  0
 15 23  1  0
 16 17  2  0
 16 18  1  0
 17 19  1  0
 17 25  1  0
 18 20  2  0
 19 21  2  0
 20 21  1  0
 20 22  1  0
 22 24  1  0
 22 27  1  0
 23 29  1  0
 25 26  3  0
 27 28  1  0
 29 30  2  0
M  END

$$$$

     RDKit          3D

 14 15  0  0  0  0  0  0  0  0999 V2000
    0.0000    0.0000    0.0000 C   0  0  0  0  0  0  0  0  0  0  0  0
    0.0000    0.0000    1.5366 C   0  0  0  0  0  0  0  0  0  0  0  0
    1.2977    0.0000    1.8977 C   0  0  0  0  0  0  0  0  0  0  0  0
    1.2138    0.1801   -0.4338 C   0  0  0  0  0  0  0  0  0  0  0  0
    2.4908    0.1801    0.7083 S   0  0  0  0  0  0  0  0  0  0  0  0
   -1.0928   -0.0537   -0.7858 N   0  0  0  0  0  0  0  0  0  0  0  0
   -2.1094   -0.8077   -0.5162 C   0  0  0  0  0  0  0  0  0  0  0  0
    1.9207    0.1669    3.1884 N   0  0  0  0  0  0  0  0  0  0  0  0
   -2.1937   -1.8395    0.5007 C   0  0  0  0  0  0  0  0  0  0  0  0
   -3.3237   -2.5236    0.7217 C   0  0  0  0  0  0  0  0  0  0  0  0
   -4.4075   -2.3532   -0.0864 O   0  0  0  0  0  0  0  0  0  0  0  0
   -3.2596   -0.6457   -1.3582 C   0  0  0  0  0  0  0  0  0  0  0  0
   -4.3887   -1.3333   -1.1437 C   0  0  0  0  0  0  0  0  0  0  0  0
   -3.4771   -3.5557    1.7899 C   0  0  0  0  0  0  0  0  0  0  0  0
  1  2  1  0
  1  4  2  0
  1  6  1  0
  2  3  2  0
  3  5  1  0
  3  8  1  0
  4  5  1  0
  6  7  2  3
  7  9  1  0
  7 12  1  0
  9 10  2  0
 10 11  1  0
 10 14  1  0
 11 13  1  0
 12 13  2  0
M  END

$$$$

     RDKit          3D

 17 18  0  0  0  0  0  0  0  0999 V2000
    0.0000    0.0000    0.0000 C   0  0  0  0  0  0  0  0  0  0  0  0
    0.0000    0.0000    1.2576 C   0  0  0  0  0  0  0  0  0  0  0  0
    1.4766    0.0000    2.0674 S   0  0  0  0  0  0  0  0  0  0  0  0
    1.3902    0.0683   -0.4921 C   0  0  0  0  0  0  0  0  0  0  0  0
    2.2452   -0.0454    0.5829 C   0  0  0  0  0  0  0  0  0  0  0  0
    3.5828    0.0170    0.6087 N   0  0  0  0  0  0  0  0  0  0  0  0
    4.4030   -0.4577   -0.4793 C   0  0  0  0  0  0  0  0  0  0  0  0
    4.2147    0.2133    1.9002 C   0  0  0  0  0  0  0  0  0  0  0  0
    1.6525    0.1340   -1.7960 N   0  0  0  0  0  0  0  0  0  0  0  0
    2.9674   -0.1615   -2.3339 C   0  0  0  0  0  0  0  0  0  0  0  0
    0.7372    0.2194   -2.9188 C   0  0  0  0  0  0  0  0  0  0  0  0
    4.8493   -1.8998   -0.1919 C   0  0  0  0  0  0  0  0  0  0  0  0
    5.5687   -1.9967    1.1525 C   0  0  0  0  0  0  0  0  0  0  0  0
    4.6523   -1.1523    2.4526 C   0  0  0  0  0  0  0  0  0  0  0  0
    0.4222   -1.1894   -3.4455 C   0  0  0  0  0  0  0  0  0  0  0  0
    1.5999   -1.8737   -3.7781 O   0  0  0  0  0  0  0  0  0  0  0  0
    2.7257   -0.8295   -3.6767 C   0  0  0  0  0  0  0  0  0  0  0  0
  1  2  2  0
  1  4  1  0
  2  3  1  0
  3  5  1  0
  4  5  2  0
  4  9  1  0
  5  6  1  0
  6  7  1  0
  6  8  1  0
  7 12  1  0
  8 14  1  0
  9 10  1  0
  9 11  1  0
 10 17  1  0
 11 15  1  0
 12 13  1  0
 15 16  1  0
 16 17  1  0
M  END

$$$$

     RDKit          3D

 12 12  0  0  0  0  0  0  0  0999 V2000
    0.0000    0.0000    0.0000 C   0  0  0  0  0  0  0  0  0  0  0  0
    0.0000    0.0000    1.5105 C   0  0  0  0  0  0  0  0  0  0  0  0
    1.1936    0.0000    1.9289 C   0  0  0  0  0  0  0  0  0  0  0  0
    1.1818   -0.0581   -0.5423 C   0  0  0  0  0  0  0  0  0  0  0  0
    2.3864   -0.0541    0.6621 S   0  0  0  0  0  0  0  0  0  0  0  0
   -1.1258    0.0000   -0.7255 N   0  0  0  0  0  0  0  0  0  0  0  0
   -1.1832    0.2140   -2.1596 C   0  0  0  0  0  0  0  0  0  0  0  0
   -2.6003   -0.0218   -2.7049 C   0  0  0  0  0  0  0  0  0  0  0  0
   -0.8751    1.6758   -2.5194 C   0  0  0  0  0  0  0  0  0  0  0  0
   -3.3546    1.3064   -2.6698 C   0  0  0  0  0  0  0  0  0  0  0  0
   -1.8854    2.5894   -1.8274 C   0  0  0  0  0  0  0  0  0  0  0  0
    1.4826    0.0575    3.3498 N   0  0  0  0  0  0  0  0  0  0  0  0
  1  2  1  0
  1  4  2  0
  1  6  1  0
  2  3  2  0
  3  5  1  0
  3 12  1  0
  4  5  1  0
  6  7  1  0
  7  8  1  0
  7  9  1  0
  8 10  1  0
  9 11  1  0
M  END

$$$$

     RDKit          3D

 30 31  0  0  0  0  0  0  0  0999 V2000
    0.0000    0.0000    0.0000 C   0  0  0  0  0  0  0  0  0  0  0  0
    0.0000    0.0000    1.6841 S   0  0  0  0  0  0  0  0  0  0  0  0
    1.6644    0.0000    1.7251 C   0  0  0  0  0  0  0  0  0  0  0  0
    1.2301   -0.0604   -0.5645 C   0  0  0  0  0  0  0  0  0  0  0  0
    2.2812   -0.0604    0.3756 C   0  0  0  0  0  0  0  0  0  0  0  0
    3.6987   -0.0658   -0.1205 C   0  0  0  0  0  0  0  0  0  0  0  0
    4.5923   -0.8025    0.6121 N   0  0  0  0  0  0  0  0  0  0  0  0
    4.3091   -1.9295    1.4252 C   0  0  0  0  0  0  0  0  0  0  0  0
    4.8863   -2.0800    2.6765 C   0  0  0  0  0  0  0  0  0  0  0  0
    3.5437   -2.9498    0.9031 C   0  0  0  0  0  0  0  0  0  0  0  0
    4.6799   -3.1804    3.4803 C   0  0  0  0  0  0  0  0  0  0  0  0
    3.3459   -4.1399    1.6177 C   0  0  0  0  0  0  0  0  0  0  0  0
    3.8703   -4.2222    2.9383 C   0  0  0  0  0  0  0  0  0  0  0  0
    4.1415    1.4108   -0.2293 C   0  0  0  0  0  0  0  0  0  0  0  0
    3.7357   -5.2971    3.7390 N   0  0  0  0  0  0  0  0  0  0  0  0
    5.2592   -3.2668    4.7899 C   0  0  0  0  0  0  0  0  0  0  0  0
    5.0553   -4.2533    5.5905 N   0  0  0  0  0  0  0  0  0  0  0  0
    6.0118   -0.6695    0.3003 C   0  0  0  0  0  0  0  0  0  0  0  0
    6.5260    0.6896    0.8002 C   0  0  0  0  0  0  0  0  0  0  0  0
    5.4072   -4.3907    6.8675 N   0  0  0  0  0  0  0  0  0  0  0  0
    5.4386   -5.7432    7.3925 C   0  0  0  0  0  0  0  0  0  0  0  0
    8.0193    0.9340    0.5887 C   0  0  0  0  0  0  0  0  0  0  0  0
    8.8458    0.4687    1.7865 C   0  0  0  0  0  0  0  0  0  0  0  0
    8.8611   -1.0376    1.9828 C   0  0  0  0  0  0  0  0  0  0  0  0
    6.2810   -3.4485    7.4868 C   0  0  0  0  0  0  0  0  0  0  0  0
    7.2833   -4.1302    8.1593 N   0  0  0  0  0  0  0  0  0  0  0  0
    6.1548   -2.2330    7.4930 O   0  0  0  0  0  0  0  0  0  0  0  0
    6.6053   -6.0019    8.3303 C   0  0  0  0  0  0  0  0  0  0  0  0
    6.3263   -5.0859    9.8712 S   0  0  0  0  0  0  0  0  0  0  0  0
    7.5456   -5.1325   10.5779 O   0  0  0  0  0  0  0  0  0  0  0  0
  1  2  1  0
  1  4  2  0
  2  3  1  0
  3  5  1  0
  4  5  1  0
  5  6  1  0
  6  7  1  0
  6 14  1  0
  7  8  1  0
  7 18  1  0
  8  9  2  0
  8 10  1  0
  9 11  1  0
 10 12  2  0
 11 13  2  0
 11 16  1  0
 12 13  1  0
 13 15  1  0
 16 17  2  3
 17 20  1  0
 18 19  1  0
 19 22  1  0
 20 21  1  0
 20 25  1  0
 21 28  1  0
 22 23  1  0
 23 24  1  0
 25 26  1  0
 25 27  2  0
 28 29  1  0
 29 30  1  0
M  END

$$$$

     RDKit          3D

 19 20  0  0  0  0  0  0  0  0999 V2000
    0.0000    0.0000    0.0000 C   0  0  0  0  0  0  0  0  0  0  0  0
    0.0000    0.0000    1.4847 C   0  0  0  0  0  0  0  0  0  0  0  0
    1.2334    0.0000    1.9868 C   0  0  0  0  0  0  0  0  0  0  0  0
    1.3223    0.0000   -0.5349 C   0  0  0  0  0  0  0  0  0  0  0  0
    2.4111   -0.0659    0.8245 S   0  0  0  0  0  0  0  0  0  0  0  0
    1.6609   -0.0536   -1.8456 C   0  0  0  0  0  0  0  0  0  0  0  0
    0.3402   -0.1299   -2.9803 S   0  0  0  0  0  0  0  0  0  0  0  0
    3.0734    0.0107   -2.2702 C   0  0  0  0  0  0  0  0  0  0  0  0
    1.7132   -0.0888   -4.1335 C   0  0  0  0  0  0  0  0  0  0  0  0
    2.9984   -0.0181   -3.6540 N   0  0  0  0  0  0  0  0  0  0  0  0
    1.4338   -0.1651   -5.2853 O   0  0  0  0  0  0  0  0  0  0  0  0
   -0.9705    0.0000   -0.7770 O   0  0  0  0  0  0  0  0  0  0  0  0
    4.2927   -0.0228   -4.3463 C   0  0  0  0  0  0  0  0  0  0  0  0
    5.1479   -1.2533   -4.0482 C   0  0  0  0  0  0  0  0  0  0  0  0
    5.1156    1.2098   -4.1032 C   0  0  0  0  0  0  0  0  0  0  0  0
    5.2160    2.1916   -4.9630 C   0  0  0  0  0  0  0  0  0  0  0  0
    4.0368    0.1118   -1.5598 O   0  0  0  0  0  0  0  0  0  0  0  0
    6.4006   -1.2742   -4.8919 C   0  0  0  0  0  0  0  0  0  0  0  0
    6.8719    0.4975   -4.8094 S   0  0  0  0  0  0  0  0  0  0  0  0
  1  2  1  0
  1  4  1  0
  1 12  2  0
  2  3  2  0
  3  5  1  0
  4  5  1  0
  4  6  2  3
  6  7  1  0
  6  8  1  0
  7  9  1  0
  8 10  1  0
  8 17  2  0
  9 10  1  0
  9 11  2  0
 10 13  1  0
 13 14  1  0
 13 15  1  0
 14 18  1  0
 15 16  2  0
 18 19  1  0
M  END

$$$$

     RDKit          3D

 30 31  0  0  0  0  0  0  0  0999 V2000
    0.0000    0.0000    0.0000 C   0  0  0  0  0  0  0  0  0  0  0  0
    0.0000    0.0000    1.6937 S   0  0  0  0  0  0  0  0  0  0  0  0
    1.7415    0.0000    1.7654 C   0  0  0  0  0  0  0  0  0  0  0  0
    1.1818   -0.0581   -0.5423 C   0  0  0  0  0  0  0  0  0  0  0  0
    2.2378   -0.0546    0.5135 C   0  0  0  0  0  0  0  0  0  0  0  0
    1.3958   -0.0118   -1.9601 C   0  0  0  0  0  0  0  0  0  0  0  0
    2.3229   -0.6664   -2.7142 C   0  0  0  0  0  0  0  0  0  0  0  0
    3.5111    0.0895   -0.0149 N   0  0  0  0  0  0  0  0  0  0  0  0
    3.1240   -1.6809   -2.1507 C   0  0  0  0  0  0  0  0  0  0  0  0
    3.8416   -2.5194   -1.8364 N   0  0  0  0  0  0  0  0  0  0  0  0
    0.3629    0.8330   -2.6493 C   0  0  0  0  0  0  0  0  0  0  0  0
    4.7048   -0.1133    0.5755 C   0  0  0  0  0  0  0  0  0  0  0  0
    4.8888   -0.5274    1.7029 O   0  0  0  0  0  0  0  0  0  0  0  0
    5.8607    0.1082   -0.3988 C   0  0  0  0  0  0  0  0  0  0  0  0
    2.6855   -0.3544   -4.1287 C   0  0  0  0  0  0  0  0  0  0  0  0
    2.3147    0.6758   -4.6556 O   0  0  0  0  0  0  0  0  0  0  0  0
    3.4623   -1.2955   -4.7524 N   0  0  0  0  0  0  0  0  0  0  0  0
    4.0445   -1.3503   -6.0179 C   0  0  0  0  0  0  0  0  0  0  0  0
    4.8556   -2.4300   -6.3953 C   0  0  0  0  0  0  0  0  0  0  0  0
    3.7871   -0.2947   -6.9042 C   0  0  0  0  0  0  0  0  0  0  0  0
    5.4467   -2.6257   -7.6427 C   0  0  0  0  0  0  0  0  0  0  0  0
    4.3723   -0.4881   -8.1370 C   0  0  0  0  0  0  0  0  0  0  0  0
    5.2008   -1.6450   -8.6026 C   0  0  0  0  0  0  0  0  0  0  0  0
    0.5136    0.8702   -4.1605 C   0  0  0  0  0  0  0  0  0  0  0  0
    5.0518   -3.5093   -5.3570 C   0  0  0  0  0  0  0  0  0  0  0  0
    6.2664   -3.7732   -8.1070 C   0  0  0  0  0  0  0  0  0  0  0  0
    6.7524   -3.9983   -9.1746 O   0  0  0  0  0  0  0  0  0  0  0  0
    6.3751   -4.6728   -7.0895 O   0  0  0  0  0  0  0  0  0  0  0  0
    5.6934    1.5543   -1.4289 Cl  0  0  0  0  0  0  0  0  0  0  0  0
    5.9463   -1.3379   -1.4036 Cl  0  0  0  0  0  0  0  0  0  0  0  0
  1  2  1  0
  1  4  2  0
  2  3  1  0
  3  5  2  0
  4  5  1  0
  4  6  1  0
  5  8  1  0
  6  7  2  3
  6 11  1  0
  7  9  1  0
  7 15  1  0
  8 12  1  0
  9 10  3  0
 11 24  1  0
 12 13  2  0
 12 14  1  0
 14 29  1  0
 14 30  1  0
 15 16  2  0
 15 17  1  0
 17 18  1  0
 18 19  1  0
 18 20  1  0
 19 21  1  0
 19 25  1  0
 20 22  2  0
 21 23  1  0
 21 26  1  0
 22 23  1  0
 26 27  2  0
 26 28  1  0
M  END

$$$$

     RDKit          3D

 14 14  0  0  0  0  0  0  0  0999 V2000
    0.0000    0.0000    0.0000 S   0  0  0  0  0  0  0  0  0  0  0  0
    0.0000    0.0000    1.7132 C   0  0  0  0  0  0  0  0  0  0  0  0
    1.1317    0.0000    2.3099 C   0  0  0  0  0  0  0  0  0  0  0  0
    1.7150   -0.0843    0.1436 C   0  0  0  0  0  0  0  0  0  0  0  0
    2.1797   -0.1598    1.3975 C   0  0  0  0  0  0  0  0  0  0  0  0
    3.5508   -0.2965    1.7965 N   0  0  0  0  0  0  0  0  0  0  0  0
    4.1203    0.9555    2.4817 C   0  0  0  0  0  0  0  0  0  0  0  0
    5.0676    1.4454    1.8290 N   0  0  0  0  0  0  0  0  0  0  0  0
    5.3315    0.7581    0.6169 C   0  0  0  0  0  0  0  0  0  0  0  0
    3.8702   -1.4037    2.7327 C   0  0  0  0  0  0  0  0  0  0  0  0
    3.4274    1.4466    3.9923 S   0  0  0  0  0  0  0  0  0  0  0  0
    4.2432    3.0876    4.0884 C   0  0  0  0  0  0  0  0  0  0  0  0
    3.5611    4.1755    3.2766 C   0  0  0  0  0  0  0  0  0  0  0  0
    3.8796    4.1019    1.8283 N   0  0  0  0  0  0  0  0  0  0  0  0
  1  2  1  0
  1  4  1  0
  2  3  2  0
  3  5  1  0
  4  5  2  0
  5  6  1  0
  6  7  1  0
  6 10  1  0
  7  8  2  3
  7 11  1  0
  8  9  1  0
 11 12  1  0
 12 13  1  0
 13 14  1  0
M  END

$$$$

     RDKit          3D

 30 32  0  0  0  0  0  0  0  0999 V2000
    0.0000    0.0000    0.0000 C   0  0  0  0  0  0  0  0  0  0  0  0
    0.0000    0.0000    1.3782 C   0  0  0  0  0  0  0  0  0  0  0  0
    1.5293    0.0000    2.0601 S   0  0  0  0  0  0  0  0  0  0  0  0
    1.3587   -0.0667   -0.4809 C   0  0  0  0  0  0  0  0  0  0  0  0
    2.3118   -0.1638    0.4769 C   0  0  0  0  0  0  0  0  0  0  0  0
   -1.0741   -0.0528   -0.9619 C   0  0  0  0  0  0  0  0  0  0  0  0
   -0.6911    0.0169   -2.1883 N   0  0  0  0  0  0  0  0  0  0  0  0
    1.6981   -0.1518   -2.1681 Cl  0  0  0  0  0  0  0  0  0  0  0  0
   -2.5008   -0.1229   -0.5264 C   0  0  0  0  0  0  0  0  0  0  0  0
   -1.6057   -0.0753   -3.1835 N   0  0  0  0  0  0  0  0  0  0  0  0
    3.9958   -0.3343    0.4149 Cl  0  0  0  0  0  0  0  0  0  0  0  0
   -2.5860   -1.0142   -3.4225 C   0  0  0  0  0  0  0  0  0  0  0  0
   -2.8300   -1.8923   -2.6399 O   0  0  0  0  0  0  0  0  0  0  0  0
   -3.0864   -0.8347   -4.6602 O   0  0  0  0  0  0  0  0  0  0  0  0
   -4.1641   -1.6843   -5.0783 C   0  0  0  0  0  0  0  0  0  0  0  0
   -5.5075   -1.0966   -4.5902 C   0  0  0  0  0  0  0  0  0  0  0  0
   -4.1218   -1.8036   -6.5748 C   0  0  0  0  0  0  0  0  0  0  0  0
   -3.8469   -3.0354   -7.1857 C   0  0  0  0  0  0  0  0  0  0  0  0
   -4.3763   -0.6985   -7.3719 C   0  0  0  0  0  0  0  0  0  0  0  0
   -3.8672   -3.1065   -8.5541 C   0  0  0  0  0  0  0  0  0  0  0  0
   -4.3981   -0.7736   -8.7962 C   0  0  0  0  0  0  0  0  0  0  0  0
   -4.1486   -2.0140   -9.4002 C   0  0  0  0  0  0  0  0  0  0  0  0
   -4.5989    0.3176   -9.5187 N   0  0  0  0  0  0  0  0  0  0  0  0
   -4.2293   -2.0487  -10.7835 C   0  0  0  0  0  0  0  0  0  0  0  0
   -4.6750    0.2867  -10.8556 C   0  0  0  0  0  0  0  0  0  0  0  0
   -4.4604   -0.9361  -11.5773 C   0  0  0  0  0  0  0  0  0  0  0  0
   -4.6696    0.5186   -6.8541 O   0  0  0  0  0  0  0  0  0  0  0  0
   -4.9322    1.4465  -11.4741 N   0  0  0  0  0  0  0  0  0  0  0  0
   -4.5014   -0.9125  -13.0194 C   0  0  0  0  0  0  0  0  0  0  0  0
   -4.6577    0.0724  -13.8673 N   0  0  0  0  0  0  0  0  0  0  0  0
  1  2  2  0
  1  4  1  0
  1  6  1  0
  2  3  1  0
  3  5  1  0
  4  5  2  0
  4  8  1  0
  5 11  1  0
  6  7  2  3
  6  9  1  0
  7 10  1  0
 10 12  1  0
 12 13  2  0
 12 14  1  0
 14 15  1  0
 15 16  1  0
 15 17  1  0
 17 18  2  0
 17 19  1  0
 18 20  1  0
 19 21  2  0
 19 27  1  0
 20 22  2  0
 21 22  1  0
 21 23  1  0
 22 24  1  0
 23 25  2  0
 24 26  2  0
 25 26  1  0
 25 28  1  0
 26 29  1  0
 29 30  2  0
M  END

$$$$

     RDKit          3D

 31 34  0  0  0  0  0  0  0  0999 V2000
    0.0000    0.0000    0.0000 C   0  0  0  0  0  0  0  0  0  0  0  0
    0.0000    0.0000    1.4678 C   0  0  0  0  0  0  0  0  0  0  0  0
    1.3383    0.0000    1.9124 C   0  0  0  0  0  0  0  0  0  0  0  0
    1.2427    0.1224   -0.5051 C   0  0  0  0  0  0  0  0  0  0  0  0
    2.4461    0.1776    0.6993 S   0  0  0  0  0  0  0  0  0  0  0  0
   -0.9902    0.0519    2.4592 C   0  0  0  0  0  0  0  0  0  0  0  0
   -0.5521   -0.1276    3.7203 N   0  0  0  0  0  0  0  0  0  0  0  0
    0.7772   -0.2930    4.0765 C   0  0  0  0  0  0  0  0  0  0  0  0
    1.7539   -0.1751    3.2356 N   0  0  0  0  0  0  0  0  0  0  0  0
   -2.3191    0.2535    2.2898 N   0  0  0  0  0  0  0  0  0  0  0  0
   -2.8940    0.6957    1.1271 C   0  0  0  0  0  0  0  0  0  0  0  0
   -4.1937    0.5582    0.9145 C   0  0  0  0  0  0  0  0  0  0  0  0
    1.0369   -0.5296    5.4844 C   0  0  0  0  0  0  0  0  0  0  0  0
    0.1247   -1.1351    6.3474 C   0  0  0  0  0  0  0  0  0  0  0  0
    2.2933   -0.1424    5.9484 C   0  0  0  0  0  0  0  0  0  0  0  0
    0.4370   -1.3849    7.6746 C   0  0  0  0  0  0  0  0  0  0  0  0
    2.5672   -0.3024    7.2896 C   0  0  0  0  0  0  0  0  0  0  0  0
    1.6615   -0.9669    8.1492 C   0  0  0  0  0  0  0  0  0  0  0  0
   -1.1861   -0.1759   -0.8612 C   0  0  0  0  0  0  0  0  0  0  0  0
   -1.3365    0.5204   -1.8541 O   0  0  0  0  0  0  0  0  0  0  0  0
   -2.1911   -1.1809   -0.4942 C   0  0  0  0  0  0  0  0  0  0  0  0
   -1.8401   -2.3182    0.2620 C   0  0  0  0  0  0  0  0  0  0  0  0
   -3.5123   -1.0398   -0.9665 C   0  0  0  0  0  0  0  0  0  0  0  0
   -2.8532   -3.1732    0.6936 C   0  0  0  0  0  0  0  0  0  0  0  0
   -4.5243   -1.8875   -0.5438 C   0  0  0  0  0  0  0  0  0  0  0  0
   -4.1766   -2.9548    0.3439 C   0  0  0  0  0  0  0  0  0  0  0  0
   -5.9478   -1.7468   -0.9722 C   0  0  0  0  0  0  0  0  0  0  0  0
    3.7576    0.0937    7.8791 O   0  0  0  0  0  0  0  0  0  0  0  0
   -0.5698   -2.6650    0.5460 O   0  0  0  0  0  0  0  0  0  0  0  0
    4.7070    0.8275    7.3192 C   0  0  0  0  0  0  0  0  0  0  0  0
    4.7012    1.2818    6.1922 O   0  0  0  0  0  0  0  0  0  0  0  0
  1  2  1  0
  1  4  2  0
  1 19  1  0
  2  3  2  0
  2  6  1  0
  3  5  1  0
  3  9  1  0
  4  5  1  0
  6  7  2  0
  6 10  1  0
  7  8  1  0
  8  9  2  0
  8 13  1  0
 10 11  1  0
 11 12  2  0
 13 14  2  0
 13 15  1  0
 14 16  1  0
 15 17  2  0
 16 18  2  0
 17 18  1  0
 17 28  1  0
 19 20  2  0
 19 21  1  0
 21 22  2  0
 21 23  1  0
 22 24  1  0
 22 29  1  0
 23 25  2  0
 24 26  2  0
 25 26  1  0
 25 27  1  0
 28 30  1  0
 30 31  2  0
M  END

$$$$

     RDKit          3D

 31 33  0  0  0  0  0  0  0  0999 V2000
    0.0000    0.0000    0.0000 C   0  0  0  0  0  0  0  0  0  0  0  0
    0.0000    0.0000    1.4428 C   0  0  0  0  0  0  0  0  0  0  0  0
    1.3156    0.0000    1.9041 C   0  0  0  0  0  0  0  0  0  0  0  0
    1.3203   -0.0649   -0.4674 C   0  0  0  0  0  0  0  0  0  0  0  0
    2.5389   -0.0609    0.7509 S   0  0  0  0  0  0  0  0  0  0  0  0
   -1.1972    0.0000    2.0602 N   0  0  0  0  0  0  0  0  0  0  0  0
   -1.3130   -0.0479    3.2829 N   0  0  0  0  0  0  0  0  0  0  0  0
   -0.4408    0.0219    4.3478 C   0  0  0  0  0  0  0  0  0  0  0  0
    0.2397    1.2171    4.5759 C   0  0  0  0  0  0  0  0  0  0  0  0
   -0.3712   -0.9771    5.2948 C   0  0  0  0  0  0  0  0  0  0  0  0
    1.0037    1.2763    5.7310 C   0  0  0  0  0  0  0  0  0  0  0  0
    0.4340   -0.9978    6.4523 C   0  0  0  0  0  0  0  0  0  0  0  0
    1.1620    0.1997    6.6152 C   0  0  0  0  0  0  0  0  0  0  0  0
   -1.1705    0.0575   -0.8417 C   0  0  0  0  0  0  0  0  0  0  0  0
   -0.9850    0.0976   -2.0704 O   0  0  0  0  0  0  0  0  0  0  0  0
    1.6592   -0.0281   -1.7706 N   0  0  0  0  0  0  0  0  0  0  0  0
    0.6148   -2.1033    7.2551 N   0  0  0  0  0  0  0  0  0  0  0  0
   -2.3325    0.1146   -0.2417 O   0  0  0  0  0  0  0  0  0  0  0  0
    1.5873    2.4706    6.0643 O   0  0  0  0  0  0  0  0  0  0  0  0
    0.9938    3.6126    5.5713 C   0  0  0  0  0  0  0  0  0  0  0  0
   -0.4041    3.7710    5.7508 C   0  0  0  0  0  0  0  0  0  0  0  0
    1.7573    4.5786    4.9697 C   0  0  0  0  0  0  0  0  0  0  0  0
   -0.9681    4.8642    5.1292 C   0  0  0  0  0  0  0  0  0  0  0  0
    1.2026    5.7135    4.4184 C   0  0  0  0  0  0  0  0  0  0  0  0
   -0.2410    5.8216    4.4077 C   0  0  0  0  0  0  0  0  0  0  0  0
   -0.9181    6.8314    3.7925 O   0  0  0  0  0  0  0  0  0  0  0  0
   -0.3344    7.7750    2.9092 C   0  0  0  0  0  0  0  0  0  0  0  0
   -1.0339    2.7875    6.4527 O   0  0  0  0  0  0  0  0  0  0  0  0
    0.2158    7.1341    1.6674 C   0  0  0  0  0  0  0  0  0  0  0  0
    1.4859    7.2161    1.2503 C   0  0  0  0  0  0  0  0  0  0  0  0
   -3.5089    0.2236   -1.0264 C   0  0  0  0  0  0  0  0  0  0  0  0
  1  2  1  0
  1  4  1  0
  1 14  1  0
  2  3  1  0
  2  6  1  0
  3  5  1  0
  4  5  1  0
  4 16  1  0
  6  7  2  3
  7  8  1  0
  8  9  2  0
  8 10  1  0
  9 11  1  0
 10 12  2  0
 11 13  2  0
 11 19  1  0
 12 13  1  0
 12 17  1  0
 14 15  2  0
 14 18  1  0
 18 31  1  0
 19 20  1  0
 20 21  2  0
 20 22  1  0
 21 23  1  0
 21 28  1  0
 22 24  2  0
 23 25  2  0
 24 25  1  0
 25 26  1  0
 26 27  1  0
 27 29  1  0
 29 30  2  0
M  END

$$$$

     RDKit          3D

 30 33  0  0  0  0  0  0  0  0999 V2000
    0.0000    0.0000    0.0000 C   0  0  0  0  0  0  0  0  0  0  0  0
    0.0000    0.0000    1.4021 C   0  0  0  0  0  0  0  0  0  0  0  0
    1.5700    0.0000    2.0112 S   0  0  0  0  0  0  0  0  0  0  0  0
    1.2091   -0.0594   -0.5549 C   0  0  0  0  0  0  0  0  0  0  0  0
    2.2007   -0.0562    0.4365 C   0  0  0  0  0  0  0  0  0  0  0  0
    1.6543   -0.0229   -1.9619 C   0  0  0  0  0  0  0  0  0  0  0  0
    2.7894   -0.0378   -2.3549 O   0  0  0  0  0  0  0  0  0  0  0  0
    0.5242    0.0929   -2.6858 O   0  0  0  0  0  0  0  0  0  0  0  0
    0.6680    0.0945   -4.0725 C   0  0  0  0  0  0  0  0  0  0  0  0
   -0.0406    1.1017   -4.7596 C   0  0  0  0  0  0  0  0  0  0  0  0
    1.3819   -0.8197   -4.8021 C   0  0  0  0  0  0  0  0  0  0  0  0
    0.0311    1.1122   -6.1202 C   0  0  0  0  0  0  0  0  0  0  0  0
    1.4563   -0.8054   -6.2022 C   0  0  0  0  0  0  0  0  0  0  0  0
    0.7660    0.1852   -6.9027 C   0  0  0  0  0  0  0  0  0  0  0  0
    2.2112   -1.6680   -7.0785 C   0  0  0  0  0  0  0  0  0  0  0  0
    0.8478    0.2645   -8.2604 N   0  0  0  0  0  0  0  0  0  0  0  0
    2.2426   -1.5252   -8.3944 N   0  0  0  0  0  0  0  0  0  0  0  0
    1.5760   -0.5860   -8.9386 C   0  0  0  0  0  0  0  0  0  0  0  0
    1.6564   -0.5746  -10.4382 C   0  0  0  0  0  0  0  0  0  0  0  0
    2.1809   -1.3765  -11.1742 O   0  0  0  0  0  0  0  0  0  0  0  0
    0.9750    0.4612  -10.8808 O   0  0  0  0  0  0  0  0  0  0  0  0
    0.9295    0.5516  -12.3036 C   0  0  0  0  0  0  0  0  0  0  0  0
   -0.1608   -0.3330  -12.8837 C   0  0  0  0  0  0  0  0  0  0  0  0
    2.9087   -2.6671   -6.4863 N   0  0  0  0  0  0  0  0  0  0  0  0
    3.7541   -3.5960   -7.0913 C   0  0  0  0  0  0  0  0  0  0  0  0
    4.1175   -3.6620   -8.4191 C   0  0  0  0  0  0  0  0  0  0  0  0
    4.2929   -4.5576   -6.1731 C   0  0  0  0  0  0  0  0  0  0  0  0
    5.0131   -4.5879   -8.9728 C   0  0  0  0  0  0  0  0  0  0  0  0
    5.1691   -5.4329   -6.8133 C   0  0  0  0  0  0  0  0  0  0  0  0
    5.5836   -5.5199   -8.1071 C   0  0  0  0  0  0  0  0  0  0  0  0
  1  2  1  0
  1  4  2  0
  2  3  1  0
  3  5  1  0
  4  5  1  0
  4  6  1  0
  6  7  2  0
  6  8  1  0
  8  9  1  0
  9 10  2  0
  9 11  1  0
 10 12  1  0
 11 13  2  0
 12 14  2  0
 13 14  1  0
 13 15  1  0
 14 16  1  0
 15 17  2  0
 15 24  1  0
 16 18  2  0
 17 18  1  0
 18 19  1  0
 19 20  2  0
 19 21  1  0
 21 22  1  0
 22 23  1  0
 24 25  1  0
 25 26  2  0
 25 27  1  0
 26 28  1  0
 27 29  2  0
 28 30  2  0
 29 30  1  0
M  END

$$$$

     RDKit          3D

 31 34  0  0  0  0  0  0  0  0999 V2000
    0.0000    0.0000    0.0000 C   0  0  0  0  0  0  0  0  0  0  0  0
    0.0000    0.0000    1.4102 C   0  0  0  0  0  0  0  0  0  0  0  0
    1.3536    0.0000    1.9098 C   0  0  0  0  0  0  0  0  0  0  0  0
    1.3235    0.1304   -0.5380 C   0  0  0  0  0  0  0  0  0  0  0  0
    2.5132    0.1849    0.6527 S   0  0  0  0  0  0  0  0  0  0  0  0
   -1.0492   -0.2087   -0.8565 N   0  0  0  0  0  0  0  0  0  0  0  0
    1.5823   -0.1528    3.2364 N   0  0  0  0  0  0  0  0  0  0  0  0
    1.5148    0.2024   -1.8616 N   0  0  0  0  0  0  0  0  0  0  0  0
   -0.9433    0.0469   -2.1906 C   0  0  0  0  0  0  0  0  0  0  0  0
    0.2904    0.2963   -2.7521 C   0  0  0  0  0  0  0  0  0  0  0  0
    2.6659    0.1439    4.0483 C   0  0  0  0  0  0  0  0  0  0  0  0
    3.7424    0.8901    3.5947 C   0  0  0  0  0  0  0  0  0  0  0  0
    2.6059   -0.4119    5.3429 C   0  0  0  0  0  0  0  0  0  0  0  0
    4.7401    1.1653    4.5168 C   0  0  0  0  0  0  0  0  0  0  0  0
    3.6223   -0.1374    6.2810 C   0  0  0  0  0  0  0  0  0  0  0  0
    4.6725    0.7844    5.8479 C   0  0  0  0  0  0  0  0  0  0  0  0
    3.5486   -0.7253    7.4821 O   0  0  0  0  0  0  0  0  0  0  0  0
    1.4817   -1.1439    5.7224 C   0  0  0  0  0  0  0  0  0  0  0  0
    0.4942   -1.6891    5.9663 N   0  0  0  0  0  0  0  0  0  0  0  0
    2.8477    0.0459   -2.3451 C   0  0  0  0  0  0  0  0  0  0  0  0
    3.1301   -1.0784   -3.1339 C   0  0  0  0  0  0  0  0  0  0  0  0
    3.8800    0.9041   -2.0330 C   0  0  0  0  0  0  0  0  0  0  0  0
    4.4149   -1.2973   -3.5824 C   0  0  0  0  0  0  0  0  0  0  0  0
    5.1901    0.6338   -2.4254 C   0  0  0  0  0  0  0  0  0  0  0  0
    5.3814   -0.3719   -3.2205 C   0  0  0  0  0  0  0  0  0  0  0  0
    6.1362    1.5343   -2.0107 O   0  0  0  0  0  0  0  0  0  0  0  0
    0.3654    0.4333   -4.2544 C   0  0  0  0  0  0  0  0  0  0  0  0
    4.5195   -0.4407    8.4760 C   0  0  0  0  0  0  0  0  0  0  0  0
   -0.8638    0.8594   -4.8589 N   0  0  0  0  0  0  0  0  0  0  0  0
   -1.9095   -0.0344   -4.4517 C   0  0  0  0  0  0  0  0  0  0  0  0
    7.4491    1.4193   -2.5565 C   0  0  0  0  0  0  0  0  0  0  0  0
  1  2  1  0
  1  4  1  0
  1  6  1  0
  2  3  1  0
  3  5  1  0
  3  7  1  0
  4  5  1  0
  4  8  1  0
  6  9  1  0
  7 11  1  0
  8 10  1  0
  8 20  1  0
  9 10  2  0
 10 27  1  0
 11 12  2  0
 11 13  1  0
 12 14  1  0
 13 15  2  0
 13 18  1  0
 14 16  2  0
 15 16  1  0
 15 17  1  0
 17 28  1  0
 18 19  3  0
 20 21  2  0
 20 22  1  0
 21 23  1  0
 22 24  2  0
 23 25  2  0
 24 25  1  0
 24 26  1  0
 26 31  1  0
 27 29  1  0
 29 30  1  0
M  END

$$$$

     RDKit          3D

 21 23  0  0  0  0  0  0  0  0999 V2000
    0.0000    0.0000    0.0000 C   0  0  0  0  0  0  0  0  0  0  0  0
    0.0000    0.0000    1.4428 C   0  0  0  0  0  0  0  0  0  0  0  0
    1.2351    0.0000    1.8988 C   0  0  0  0  0  0  0  0  0  0  0  0
    1.3327    0.0655   -0.6116 C   0  0  0  0  0  0  0  0  0  0  0  0
    2.4310    0.0578    0.6143 S   0  0  0  0  0  0  0  0  0  0  0  0
   -1.1388    0.0000   -0.7338 C   0  0  0  0  0  0  0  0  0  0  0  0
   -2.8181    0.0825   -0.1394 S   0  0  0  0  0  0  0  0  0  0  0  0
    1.6717    0.0287   -1.9148 N   0  0  0  0  0  0  0  0  0  0  0  0
   -3.5735   -0.0434   -1.7726 C   0  0  0  0  0  0  0  0  0  0  0  0
   -1.2013   -0.0625   -2.4646 S   0  0  0  0  0  0  0  0  0  0  0  0
   -3.0028   -0.0851   -2.3747 C   0  0  0  0  0  0  0  0  0  0  0  0
    2.8206    0.1292   -2.6693 C   0  0  0  0  0  0  0  0  0  0  0  0
    3.9326    0.7650   -2.1606 C   0  0  0  0  0  0  0  0  0  0  0  0
    2.9862   -0.5718   -4.2674 S   0  0  0  0  0  0  0  0  0  0  0  0
    4.8410    0.5688   -3.2427 C   0  0  0  0  0  0  0  0  0  0  0  0
    4.5997    0.0079   -4.5812 C   0  0  0  0  0  0  0  0  0  0  0  0
    5.3010   -0.1637   -5.7184 N   0  0  0  0  0  0  0  0  0  0  0  0
    4.2564    1.5313   -1.0319 C   0  0  0  0  0  0  0  0  0  0  0  0
    4.4060    2.1804   -0.0976 N   0  0  0  0  0  0  0  0  0  0  0  0
    6.0877    1.1182   -2.8788 C   0  0  0  0  0  0  0  0  0  0  0  0
    7.1850    1.4744   -2.8462 N   0  0  0  0  0  0  0  0  0  0  0  0
  1  2  1  0
  1  4  1  0
  1  6  2  3
  2  3  2  0
  3  5  1  0
  4  5  1  0
  4  8  1  0
  6  7  1  0
  6 10  1  0
  7  9  1  0
  8 12  1  0
  9 11  3  0
 10 11  1  0
 12 13  2  0
 12 14  1  0
 13 15  1  0
 13 18  1  0
 14 16  1  0
 15 16  1  0
 15 20  1  0
 16 17  1  0
 18 19  3  0
 20 21  3  0
M  END

$$$$

     RDKit          3D

 31 33  0  0  0  0  0  0  0  0999 V2000
    0.0000    0.0000    0.0000 C   0  0  0  0  0  0  0  0  0  0  0  0
    0.0000    0.0000    1.6841 S   0  0  0  0  0  0  0  0  0  0  0  0
    1.6644    0.0000    1.7251 C   0  0  0  0  0  0  0  0  0  0  0  0
    1.2301   -0.0604   -0.5645 C   0  0  0  0  0  0  0  0  0  0  0  0
    2.2812   -0.0604    0.3756 C   0  0  0  0  0  0  0  0  0  0  0  0
    3.6322   -0.0546    0.2750 N   0  0  0  0  0  0  0  0  0  0  0  0
    4.3037   -0.5776   -0.6312 N   0  0  0  0  0  0  0  0  0  0  0  0
    3.9520   -1.4858   -1.5841 C   0  0  0  0  0  0  0  0  0  0  0  0
    4.4173   -1.5743   -2.8700 C   0  0  0  0  0  0  0  0  0  0  0  0
    3.0995   -2.6334   -1.2160 C   0  0  0  0  0  0  0  0  0  0  0  0
    2.6890   -2.8171   -0.1021 O   0  0  0  0  0  0  0  0  0  0  0  0
    5.1287   -0.6119   -3.4881 N   0  0  0  0  0  0  0  0  0  0  0  0
    2.8510   -3.5296   -2.2761 N   0  0  0  0  0  0  0  0  0  0  0  0
    5.2573    0.7079   -2.9624 C   0  0  0  0  0  0  0  0  0  0  0  0
    6.5061    1.2481   -2.6978 C   0  0  0  0  0  0  0  0  0  0  0  0
    4.0931    1.3887   -2.6095 C   0  0  0  0  0  0  0  0  0  0  0  0
    6.5788    2.5083   -2.1444 C   0  0  0  0  0  0  0  0  0  0  0  0
    4.1703    2.6394   -2.0549 C   0  0  0  0  0  0  0  0  0  0  0  0
    5.4660    3.2865   -1.8288 C   0  0  0  0  0  0  0  0  0  0  0  0
    1.9898   -4.6280   -1.9820 C   0  0  0  0  0  0  0  0  0  0  0  0
    0.8407   -4.7837   -2.7270 C   0  0  0  0  0  0  0  0  0  0  0  0
    2.3696   -5.4961   -0.9485 C   0  0  0  0  0  0  0  0  0  0  0  0
   -0.0563   -5.8126   -2.4437 C   0  0  0  0  0  0  0  0  0  0  0  0
    1.4778   -6.5190   -0.6664 C   0  0  0  0  0  0  0  0  0  0  0  0
    0.1870   -6.6426   -1.3706 C   0  0  0  0  0  0  0  0  0  0  0  0
   -0.6357   -7.6400   -0.9661 O   0  0  0  0  0  0  0  0  0  0  0  0
   -1.8042   -7.9376   -1.6817 C   0  0  0  0  0  0  0  0  0  0  0  0
    5.6813   -0.9097   -4.7873 C   0  0  0  0  0  0  0  0  0  0  0  0
    1.7148   -7.4040    0.3632 O   0  0  0  0  0  0  0  0  0  0  0  0
    2.8031   -7.2342    1.2438 C   0  0  0  0  0  0  0  0  0  0  0  0
    5.4092    4.4909   -1.2457 O   0  0  0  0  0  0  0  0  0  0  0  0
  1  2  1  0
  1  4  2  0
  2  3  1  0
  3  5  1  0
  4  5  1  0
  5  6  1  0
  6  7  2  3
  7  8  1  0
  8  9  2  3
  8 10  1  0
  9 12  1  0
 10 11  2  0
 10 13  1  0
 12 14  1  0
 12 28  1  0
 13 20  1  0
 14 15  2  0
 14 16  1  0
 15 17  1  0
 16 18  2  0
 17 19  2  0
 18 19  1  0
 19 31  1  0
 20 21  2  0
 20 22  1  0
 21 23  1  0
 22 24  2  0
 23 25  2  0
 24 25  1  0
 24 29  1  0
 25 26  1  0
 26 27  1  0
 29 30  1  0
M  END

$$$$

     RDKit          3D

 27 29  0  0  0  0  0  0  0  0999 V2000
    0.0000    0.0000    0.0000 C   0  0  0  0  0  0  0  0  0  0  0  0
    0.0000    0.0000    1.6841 S   0  0  0  0  0  0  0  0  0  0  0  0
    1.7132    0.0000    1.6982 C   0  0  0  0  0  0  0  0  0  0  0  0
    1.2658    0.0622   -0.5809 C   0  0  0  0  0  0  0  0  0  0  0  0
    2.2461    0.0590    0.3992 C   0  0  0  0  0  0  0  0  0  0  0  0
   -1.1933   -0.1175   -0.7726 C   0  0  0  0  0  0  0  0  0  0  0  0
   -1.2058   -0.5000   -1.9782 N   0  0  0  0  0  0  0  0  0  0  0  0
   -2.3557   -0.6412   -2.6502 N   0  0  0  0  0  0  0  0  0  0  0  0
   -2.4478   -1.4285   -3.7777 C   0  0  0  0  0  0  0  0  0  0  0  0
   -3.5484   -1.7152   -4.2056 O   0  0  0  0  0  0  0  0  0  0  0  0
   -1.1576   -1.8898   -4.3039 C   0  0  0  0  0  0  0  0  0  0  0  0
   -0.9199   -3.1481   -4.8136 C   0  0  0  0  0  0  0  0  0  0  0  0
    0.0942   -1.2038   -4.4468 C   0  0  0  0  0  0  0  0  0  0  0  0
    0.3771   -3.2073   -5.1423 O   0  0  0  0  0  0  0  0  0  0  0  0
    0.9945   -2.0073   -4.9146 N   0  0  0  0  0  0  0  0  0  0  0  0
   -1.7700   -4.3416   -4.9936 C   0  0  0  0  0  0  0  0  0  0  0  0
    0.4288    0.1895   -4.1697 C   0  0  0  0  0  0  0  0  0  0  0  0
    1.6424    0.4895   -3.5348 C   0  0  0  0  0  0  0  0  0  0  0  0
   -0.4404    1.2101   -4.5522 C   0  0  0  0  0  0  0  0  0  0  0  0
    1.9442    1.8522   -3.3336 C   0  0  0  0  0  0  0  0  0  0  0  0
   -0.1477    2.5266   -4.3583 C   0  0  0  0  0  0  0  0  0  0  0  0
    1.1128    2.8941   -3.7940 C   0  0  0  0  0  0  0  0  0  0  0  0
    1.3842    4.2074   -3.6675 N   0  0  0  0  0  0  0  0  0  0  0  0
    3.1502    2.1024   -2.6471 C   0  0  0  0  0  0  0  0  0  0  0  0
    4.1015    2.2952   -2.0473 N   0  0  0  0  0  0  0  0  0  0  0  0
    2.3820   -0.5807   -3.1853 O   0  0  0  0  0  0  0  0  0  0  0  0
    3.7413   -0.4386   -2.8380 C   0  0  0  0  0  0  0  0  0  0  0  0
  1  2  1  0
  1  4  1  0
  1  6  1  0
  2  3  1  0
  3  5  1  0
  4  5  2  0
  6  7  2  3
  7  8  1  0
  8  9  1  0
  9 10  2  0
  9 11  1  0
 11 12  2  0
 11 13  1  0
 12 14  1  0
 12 16  1  0
 13 15  2  0
 13 17  1  0
 14 15  1  0
 17 18  2  0
 17 19  1  0
 18 20  1  0
 18 26  1  0
 19 21  2  0
 20 22  2  0
 20 24  1  0
 21 22  1  0
 22 23  1  0
 24 25  3  0
 26 27  1  0
M  END

$$$$

     RDKit          3D

 26 29  0  0  0  0  0  0  0  0999 V2000
    0.0000    0.0000    0.0000 C   0  0  0  0  0  0  0  0  0  0  0  0
    0.0000    0.0000    1.6649 S   0  0  0  0  0  0  0  0  0  0  0  0
    1.6813    0.0000    1.7618 C   0  0  0  0  0  0  0  0  0  0  0  0
    1.1818    0.0581   -0.5423 C   0  0  0  0  0  0  0  0  0  0  0  0
    2.2317    0.0546    0.5075 C   0  0  0  0  0  0  0  0  0  0  0  0
    3.5104    0.0570    0.1355 N   0  0  0  0  0  0  0  0  0  0  0  0
    1.5193    0.1286   -1.8605 N   0  0  0  0  0  0  0  0  0  0  0  0
    4.7107   -0.0001    0.8425 C   0  0  0  0  0  0  0  0  0  0  0  0
    4.8115   -0.0792    2.2227 C   0  0  0  0  0  0  0  0  0  0  0  0
    5.8707    0.0815    0.0736 C   0  0  0  0  0  0  0  0  0  0  0  0
    6.0714   -0.1850    2.8100 C   0  0  0  0  0  0  0  0  0  0  0  0
    7.1033   -0.0161    0.6460 C   0  0  0  0  0  0  0  0  0  0  0  0
    7.2722   -0.2169    2.0714 C   0  0  0  0  0  0  0  0  0  0  0  0
    6.0460   -0.2019    4.1414 O   0  0  0  0  0  0  0  0  0  0  0  0
    8.6011   -0.3779    2.6317 C   0  0  0  0  0  0  0  0  0  0  0  0
    8.6866   -0.4955    3.8451 O   0  0  0  0  0  0  0  0  0  0  0  0
    9.6746   -0.3411    1.8317 O   0  0  0  0  0  0  0  0  0  0  0  0
    0.7342    0.3612   -2.9888 C   0  0  0  0  0  0  0  0  0  0  0  0
    1.2616    0.1512   -4.0553 O   0  0  0  0  0  0  0  0  0  0  0  0
   -0.6251    0.9050   -2.7991 C   0  0  0  0  0  0  0  0  0  0  0  0
   -1.3115    1.5821   -3.9506 C   0  0  0  0  0  0  0  0  0  0  0  0
   -1.7515    0.2205   -3.5544 C   0  0  0  0  0  0  0  0  0  0  0  0
   -2.8350    1.0994   -4.1772 C   0  0  0  0  0  0  0  0  0  0  0  0
   -2.4690    1.6100   -5.5699 C   0  0  0  0  0  0  0  0  0  0  0  0
   -2.1646    2.7876   -3.7292 C   0  0  0  0  0  0  0  0  0  0  0  0
   -1.3298    4.0785   -3.8877 C   0  0  0  0  0  0  0  0  0  0  0  0
  1  2  1  0
  1  4  2  0
  2  3  1  0
  3  5  2  0
  4  5  1  0
  4  7  1  0
  5  6  1  0
  6  8  1  0
  7 18  1  0
  8  9  2  0
  8 10  1  0
  9 11  1  0
 10 12  2  0
 11 13  2  0
 11 14  1  0
 12 13  1  0
 13 15  1  0
 15 16  2  0
 15 17  1  0
 18 19  2  0
 18 20  1  0
 20 21  1  0
 20 22  1  0
 21 22  1  0
 21 23  1  0
 21 25  1  0
 22 23  1  0
 23 24  1  0
 25 26  1  0
M  END

$$$$

     RDKit          3D

 24 26  0  0  0  0  0  0  0  0999 V2000
    0.0000    0.0000    0.0000 C   0  0  0  0  0  0  0  0  0  0  0  0
    0.0000    0.0000    1.4428 C   0  0  0  0  0  0  0  0  0  0  0  0
    1.3156    0.0000    1.9041 C   0  0  0  0  0  0  0  0  0  0  0  0
    1.3203   -0.0649   -0.4674 C   0  0  0  0  0  0  0  0  0  0  0  0
    2.5389   -0.0609    0.7509 S   0  0  0  0  0  0  0  0  0  0  0  0
    1.6651   -0.0275   -1.7931 N   0  0  0  0  0  0  0  0  0  0  0  0
    2.8926   -0.2407   -2.0113 O   0  0  0  0  0  0  0  0  0  0  0  0
   -1.0822   -0.1605    2.4214 C   0  0  0  0  0  0  0  0  0  0  0  0
   -0.8990    0.0865    3.5970 O   0  0  0  0  0  0  0  0  0  0  0  0
   -2.3755   -0.6962    1.9265 C   0  0  0  0  0  0  0  0  0  0  0  0
   -3.3653   -1.2252    2.9245 C   0  0  0  0  0  0  0  0  0  0  0  0
   -3.6231    0.0506    2.3664 C   0  0  0  0  0  0  0  0  0  0  0  0
    0.7381    0.2996   -2.6575 N   0  0  0  0  0  0  0  0  0  0  0  0
    0.8679    0.3362   -3.9372 C   0  0  0  0  0  0  0  0  0  0  0  0
   -0.9971    0.0490   -0.8929 N   0  0  0  0  0  0  0  0  0  0  0  0
   -0.2079    0.7638   -4.7704 C   0  0  0  0  0  0  0  0  0  0  0  0
   -1.4574    1.1643   -4.2321 C   0  0  0  0  0  0  0  0  0  0  0  0
   -0.0357    0.7392   -6.1617 C   0  0  0  0  0  0  0  0  0  0  0  0
   -2.5074    1.5312   -5.0991 C   0  0  0  0  0  0  0  0  0  0  0  0
   -1.0578    1.0941   -7.0027 C   0  0  0  0  0  0  0  0  0  0  0  0
   -2.3064    1.5568   -6.4465 C   0  0  0  0  0  0  0  0  0  0  0  0
   -4.1949    1.9975   -4.3083 Br  0  0  0  0  0  0  0  0  0  0  0  0
   -0.7352    1.1046   -8.8965 Br  0  0  0  0  0  0  0  0  0  0  0  0
   -1.7086    1.2311   -2.9183 O   0  0  0  0  0  0  0  0  0  0  0  0
  1  2  1  0
  1  4  1  0
  1 15  1  0
  2  3  1  0
  2  8  1  0
  3  5  1  0
  4  5  1  0
  4  6  1  0
  6  7  1  0
  6 13  1  0
  8  9  2  0
  8 10  1  0
 10 11  1  0
 10 12  1  0
 11 12  1  0
 13 14  2  3
 14 16  1  0
 16 17  2  0
 16 18  1  0
 17 19  1  0
 17 24  1  0
 18 20  2  0
 19 21  2  0
 19 22  1  0
 20 21  1  0
 20 23  1  0
M  END

$$$$

     RDKit          3D

 32 34  0  0  0  0  0  0  0  0999 V2000
    0.0000    0.0000    0.0000 C   0  0  0  0  0  0  0  0  0  0  0  0
    0.0000    0.0000    1.4183 C   0  0  0  0  0  0  0  0  0  0  0  0
    1.2733    0.0000    1.9860 C   0  0  0  0  0  0  0  0  0  0  0  0
    1.3148    0.0000   -0.5319 C   0  0  0  0  0  0  0  0  0  0  0  0
    2.5178   -0.0630    0.6725 S   0  0  0  0  0  0  0  0  0  0  0  0
   -1.1519    0.0000    2.1606 N   0  0  0  0  0  0  0  0  0  0  0  0
   -1.1458    0.0000   -0.9174 C   0  0  0  0  0  0  0  0  0  0  0  0
   -0.9347    0.1411   -2.1418 O   0  0  0  0  0  0  0  0  0  0  0  0
    1.6258   -0.0558    3.3503 C   0  0  0  0  0  0  0  0  0  0  0  0
    2.8496   -0.1074    3.9470 C   0  0  0  0  0  0  0  0  0  0  0  0
   -1.3540   -0.0541    3.5149 C   0  0  0  0  0  0  0  0  0  0  0  0
   -0.5177   -0.1152    4.3559 O   0  0  0  0  0  0  0  0  0  0  0  0
    1.7285   -0.0655   -2.1333 Cl  0  0  0  0  0  0  0  0  0  0  0  0
   -3.1037   -0.0864    3.8002 S   0  0  0  0  0  0  0  0  0  0  0  0
    3.1572   -0.1116    5.3398 C   0  0  0  0  0  0  0  0  0  0  0  0
    2.1226   -0.0578    6.2727 C   0  0  0  0  0  0  0  0  0  0  0  0
    4.4652   -0.2225    5.8324 C   0  0  0  0  0  0  0  0  0  0  0  0
    2.4636   -0.1135    7.5988 C   0  0  0  0  0  0  0  0  0  0  0  0
    4.8020   -0.2799    7.1514 C   0  0  0  0  0  0  0  0  0  0  0  0
    3.7709   -0.2203    8.0944 C   0  0  0  0  0  0  0  0  0  0  0  0
    4.1651   -0.2298    9.4150 N   0  0  0  0  0  0  0  0  0  0  0  0
   -2.3815   -0.1217   -0.4151 N   0  0  0  0  0  0  0  0  0  0  0  0
    3.1452   -0.0543   10.4323 C   0  0  0  0  0  0  0  0  0  0  0  0
    5.2589   -1.0340    9.9275 C   0  0  0  0  0  0  0  0  0  0  0  0
    4.7708   -2.3010   10.5895 C   0  0  0  0  0  0  0  0  0  0  0  0
    3.9986   -3.2313    9.9783 C   0  0  0  0  0  0  0  0  0  0  0  0
    5.0673   -2.6623   12.2685 S   0  0  0  0  0  0  0  0  0  0  0  0
    3.6322   -4.3081   10.8526 C   0  0  0  0  0  0  0  0  0  0  0  0
    4.0223   -4.4483   12.3042 S   0  0  0  0  0  0  0  0  0  0  0  0
    2.9014   -5.2030   10.4762 O   0  0  0  0  0  0  0  0  0  0  0  0
    3.6038   -3.2145    8.7066 O   0  0  0  0  0  0  0  0  0  0  0  0
    2.6263   -1.4190   10.9114 C   0  0  0  0  0  0  0  0  0  0  0  0
  1  2  1  0
  1  4  1  0
  1  7  1  0
  2  3  1  0
  2  6  1  0
  3  5  1  0
  3  9  1  0
  4  5  1  0
  4 13  1  0
  6 11  1  0
  7  8  2  0
  7 22  1  0
  9 10  2  3
 10 15  1  0
 11 12  2  0
 11 14  1  0
 15 16  2  0
 15 17  1  0
 16 18  1  0
 17 19  2  0
 18 20  2  0
 19 20  1  0
 20 21  1  0
 21 23  1  0
 21 24  1  0
 23 32  1  0
 24 25  1  0
 25 26  2  0
 25 27  1  0
 26 28  1  0
 26 31  1  0
 27 29  1  0
 28 29  1  0
 28 30  2  0
M  END

$$$$

     RDKit          3D

 30 33  0  0  0  0  0  0  0  0999 V2000
    0.0000    0.0000    0.0000 C   0  0  0  0  0  0  0  0  0  0  0  0
    0.0000    0.0000    1.6554 S   0  0  0  0  0  0  0  0  0  0  0  0
    1.7828    0.0000    1.6994 C   0  0  0  0  0  0  0  0  0  0  0  0
    1.2951   -0.0636   -0.5943 C   0  0  0  0  0  0  0  0  0  0  0  0
    2.3212    0.0476    0.4375 C   0  0  0  0  0  0  0  0  0  0  0  0
    2.4439    0.0578    3.0275 C   0  0  0  0  0  0  0  0  0  0  0  0
    3.6732    0.9331    2.9616 C   0  0  0  0  0  0  0  0  0  0  0  0
    4.8824    0.3981    3.4279 C   0  0  0  0  0  0  0  0  0  0  0  0
    3.6325    2.2372    2.4705 C   0  0  0  0  0  0  0  0  0  0  0  0
    6.0265    1.1332    3.3431 C   0  0  0  0  0  0  0  0  0  0  0  0
    4.8369    2.9683    2.3075 C   0  0  0  0  0  0  0  0  0  0  0  0
    6.0064    2.4050    2.7341 C   0  0  0  0  0  0  0  0  0  0  0  0
    2.4540    2.8591    2.0606 N   0  0  0  0  0  0  0  0  0  0  0  0
    4.0555    0.0745    0.0230 S   0  0  0  0  0  0  0  0  0  0  0  0
    4.3036    1.8623   -0.3083 C   0  0  0  0  0  0  0  0  0  0  0  0
    1.7465   -0.2469   -1.8921 C   0  0  0  0  0  0  0  0  0  0  0  0
    1.0062   -0.2290   -2.9806 N   0  0  0  0  0  0  0  0  0  0  0  0
    3.3993    2.3723   -1.3816 C   0  0  0  0  0  0  0  0  0  0  0  0
    2.4406    3.3300   -1.0901 C   0  0  0  0  0  0  0  0  0  0  0  0
    3.4734    1.8266   -2.6623 C   0  0  0  0  0  0  0  0  0  0  0  0
    1.5439    3.6741   -2.0896 C   0  0  0  0  0  0  0  0  0  0  0  0
    2.5710    2.1734   -3.6557 C   0  0  0  0  0  0  0  0  0  0  0  0
    1.5476    3.0517   -3.3282 C   0  0  0  0  0  0  0  0  0  0  0  0
    2.5749    1.5679   -5.0489 C   0  0  0  0  0  0  0  0  0  0  0  0
    3.4358    0.3150   -5.2024 C   0  0  0  0  0  0  0  0  0  0  0  0
    1.3021    2.9633    2.9506 C   0  0  0  0  0  0  0  0  0  0  0  0
    0.4804    4.1632    2.3772 C   0  0  0  0  0  0  0  0  0  0  0  0
    1.3634    4.7430    1.2853 C   0  0  0  0  0  0  0  0  0  0  0  0
    2.4409    3.9596    1.0859 C   0  0  0  0  0  0  0  0  0  0  0  0
    0.8451    5.9456    0.6038 C   0  0  0  0  0  0  0  0  0  0  0  0
  1  2  1  0
  1  4  1  0
  2  3  1  0
  3  5  2  0
  3  6  1  0
  4  5  1  0
  4 16  2  0
  5 14  1  0
  6  7  1  0
  7  8  2  0
  7  9  1  0
  8 10  1  0
  9 11  2  0
  9 13  1  0
 10 12  2  0
 11 12  1  0
 13 26  1  0
 13 29  1  0
 14 15  1  0
 15 18  1  0
 16 17  2  0
 18 19  2  0
 18 20  1  0
 19 21  1  0
 20 22  2  0
 21 23  2  0
 22 23  1  0
 22 24  1  0
 24 25  1  0
 26 27  1  0
 27 28  1  0
 28 29  2  0
 28 30  1  0
M  END

$$$$

     RDKit          3D

 31 33  0  0  0  0  0  0  0  0999 V2000
    0.0000    0.0000    0.0000 C   0  0  0  0  0  0  0  0  0  0  0  0
    0.0000    0.0000    1.7529 S   0  0  0  0  0  0  0  0  0  0  0  0
    1.7029    0.0000    1.7950 C   0  0  0  0  0  0  0  0  0  0  0  0
    1.2301    0.0604   -0.5645 C   0  0  0  0  0  0  0  0  0  0  0  0
    2.2445   -0.0495    0.4556 C   0  0  0  0  0  0  0  0  0  0  0  0
    3.6784   -0.1952    0.2263 C   0  0  0  0  0  0  0  0  0  0  0  0
    4.3718   -0.3284    1.4191 N   0  0  0  0  0  0  0  0  0  0  0  0
    4.2505   -0.2475   -0.8524 O   0  0  0  0  0  0  0  0  0  0  0  0
    3.8102   -0.4386    2.6470 C   0  0  0  0  0  0  0  0  0  0  0  0
    2.4613   -0.3051    2.8489 C   0  0  0  0  0  0  0  0  0  0  0  0
    5.7898   -0.5272    1.2415 C   0  0  0  0  0  0  0  0  0  0  0  0
    1.5979    0.1373   -2.0009 C   0  0  0  0  0  0  0  0  0  0  0  0
   -1.2792   -0.1898   -0.7466 C   0  0  0  0  0  0  0  0  0  0  0  0
    1.7762   -0.5544    4.1521 C   0  0  0  0  0  0  0  0  0  0  0  0
    0.6965   -0.1076    4.4590 O   0  0  0  0  0  0  0  0  0  0  0  0
   -1.3495   -1.6207   -1.3262 C   0  0  0  0  0  0  0  0  0  0  0  0
   -0.9169   -2.7456   -0.3729 C   0  0  0  0  0  0  0  0  0  0  0  0
    0.5843   -2.8660   -0.2576 C   0  0  0  0  0  0  0  0  0  0  0  0
    1.2105   -2.9848    0.7769 O   0  0  0  0  0  0  0  0  0  0  0  0
    2.4835   -1.3673    4.9216 O   0  0  0  0  0  0  0  0  0  0  0  0
    1.2073   -2.8600   -1.4174 O   0  0  0  0  0  0  0  0  0  0  0  0
    1.8801   -1.8153    6.1340 C   0  0  0  0  0  0  0  0  0  0  0  0
    1.5629   -0.6822    7.0811 C   0  0  0  0  0  0  0  0  0  0  0  0
    2.4752    0.3488    7.3010 C   0  0  0  0  0  0  0  0  0  0  0  0
    0.3281   -0.5912    7.7219 C   0  0  0  0  0  0  0  0  0  0  0  0
    2.2148    1.4091    8.1030 C   0  0  0  0  0  0  0  0  0  0  0  0
    0.0635    0.4996    8.5487 C   0  0  0  0  0  0  0  0  0  0  0  0
    0.9903    1.4962    8.7469 C   0  0  0  0  0  0  0  0  0  0  0  0
    0.6769    2.6101    9.6771 C   0  0  0  0  0  0  0  0  0  0  0  0
   -0.0428    2.5173   10.6345 O   0  0  0  0  0  0  0  0  0  0  0  0
    1.2724    3.7593    9.3326 O   0  0  0  0  0  0  0  0  0  0  0  0
  1  2  1  0
  1  4  2  0
  1 13  1  0
  2  3  1  0
  3  5  2  0
  3 10  1  0
  4  5  1  0
  4 12  1  0
  5  6  1  0
  6  7  1  0
  6  8  2  0
  7  9  1  0
  7 11  1  0
  9 10  2  0
 10 14  1  0
 13 16  1  0
 14 15  2  0
 14 20  1  0
 16 17  1  0
 17 18  1  0
 18 19  2  0
 18 21  1  0
 20 22  1  0
 22 23  1  0
 23 24  2  0
 23 25  1  0
 24 26  1  0
 25 27  2  0
 26 28  2  0
 27 28  1  0
 28 29  1  0
 29 30  2  0
 29 31  1  0
M  END

$$$$

     RDKit          3D

 25 26  0  0  0  0  0  0  0  0999 V2000
    0.0000    0.0000    0.0000 C   0  0  0  0  0  0  0  0  0  0  0  0
    0.0000    0.0000    1.4264 C   0  0  0  0  0  0  0  0  0  0  0  0
    1.2250    0.0000    1.9487 C   0  0  0  0  0  0  0  0  0  0  0  0
    1.2927    0.1918   -0.4621 C   0  0  0  0  0  0  0  0  0  0  0  0
    2.4973    0.1799    0.7423 S   0  0  0  0  0  0  0  0  0  0  0  0
    1.7425    0.4613   -2.1138 S   0  0  0  0  0  0  0  0  0  0  0  0
   -1.1174   -0.2223   -0.9122 C   0  0  0  0  0  0  0  0  0  0  0  0
   -1.0219    0.0083   -2.1157 O   0  0  0  0  0  0  0  0  0  0  0  0
   -2.2378   -0.8211   -0.3983 N   0  0  0  0  0  0  0  0  0  0  0  0
   -3.1961   -1.6216   -1.0360 C   0  0  0  0  0  0  0  0  0  0  0  0
   -3.9310   -2.2732   -0.3444 O   0  0  0  0  0  0  0  0  0  0  0  0
   -3.2331   -1.5505   -2.5531 C   0  0  0  0  0  0  0  0  0  0  0  0
    1.5983    0.0591    3.3933 C   0  0  0  0  0  0  0  0  0  0  0  0
    0.3861    0.1892    4.2997 C   0  0  0  0  0  0  0  0  0  0  0  0
   -2.5574   -3.0726   -3.3487 S   0  0  0  0  0  0  0  0  0  0  0  0
    3.3491    1.2971   -2.0059 C   0  0  0  0  0  0  0  0  0  0  0  0
   -1.1667   -3.3573   -2.2862 C   0  0  0  0  0  0  0  0  0  0  0  0
   -1.3227   -3.3143   -1.0171 N   0  0  0  0  0  0  0  0  0  0  0  0
   -0.0175   -3.5945   -2.9160 N   0  0  0  0  0  0  0  0  0  0  0  0
   -0.2505   -3.3270   -0.1638 C   0  0  0  0  0  0  0  0  0  0  0  0
    1.1786   -3.7831   -2.1775 C   0  0  0  0  0  0  0  0  0  0  0  0
    1.0315   -3.5066   -0.6369 C   0  0  0  0  0  0  0  0  0  0  0  0
    2.1591   -4.0392   -2.8480 O   0  0  0  0  0  0  0  0  0  0  0  0
   -0.5502   -3.1335    1.1272 N   0  0  0  0  0  0  0  0  0  0  0  0
   -4.6846   -1.3796   -2.9345 C   0  0  0  0  0  0  0  0  0  0  0  0
  1  2  1  0
  1  4  2  0
  1  7  1  0
  2  3  2  0
  3  5  1  0
  3 13  1  0
  4  5  1  0
  4  6  1  0
  6 16  1  0
  7  8  2  0
  7  9  1  0
  9 10  1  0
 10 11  2  0
 10 12  1  0
 12 15  1  0
 12 25  1  0
 13 14  1  0
 15 17  1  0
 17 18  2  0
 17 19  1  0
 18 20  1  0
 19 21  1  0
 20 22  2  0
 20 24  1  0
 21 22  1  0
 21 23  2  0
M  END

$$$$

     RDKit          3D

 29 30  0  0  0  0  0  0  0  0999 V2000
    0.0000    0.0000    0.0000 C   0  0  0  0  0  0  0  0  0  0  0  0
    0.0000    0.0000    1.4264 C   0  0  0  0  0  0  0  0  0  0  0  0
    1.5119    0.0000    2.1005 S   0  0  0  0  0  0  0  0  0  0  0  0
    1.3743    0.0675   -0.4865 C   0  0  0  0  0  0  0  0  0  0  0  0
    2.2734    0.1624    0.5225 C   0  0  0  0  0  0  0  0  0  0  0  0
    1.5946    0.0199   -1.9455 C   0  0  0  0  0  0  0  0  0  0  0  0
    2.1216    1.1523   -2.5649 C   0  0  0  0  0  0  0  0  0  0  0  0
    1.3167   -1.1102   -2.7130 C   0  0  0  0  0  0  0  0  0  0  0  0
    2.2645    1.0782   -3.9416 C   0  0  0  0  0  0  0  0  0  0  0  0
    1.4934   -1.0911   -4.0877 C   0  0  0  0  0  0  0  0  0  0  0  0
    1.9707   -0.0635   -4.7007 C   0  0  0  0  0  0  0  0  0  0  0  0
    2.7190    2.1404   -4.6640 O   0  0  0  0  0  0  0  0  0  0  0  0
    4.0238    0.0684    0.5311 S   0  0  0  0  0  0  0  0  0  0  0  0
    4.5095   -0.2041   -1.1955 C   0  0  0  0  0  0  0  0  0  0  0  0
    2.7740    3.4623   -4.1310 C   0  0  0  0  0  0  0  0  0  0  0  0
    3.1594    4.4317   -5.2353 C   0  0  0  0  0  0  0  0  0  0  0  0
    1.3075   -2.1428   -4.9338 O   0  0  0  0  0  0  0  0  0  0  0  0
    0.6058   -3.2737   -4.4438 C   0  0  0  0  0  0  0  0  0  0  0  0
    0.1475   -4.0726   -5.7070 C   0  0  0  0  0  0  0  0  0  0  0  0
    0.3984   -3.3864   -7.0389 C   0  0  0  0  0  0  0  0  0  0  0  0
   -1.1181    0.0549    2.2304 N   0  0  0  0  0  0  0  0  0  0  0  0
    2.1777   -0.1063   -6.0787 O   0  0  0  0  0  0  0  0  0  0  0  0
    1.0218   -0.2240   -6.8492 C   0  0  0  0  0  0  0  0  0  0  0  0
    1.4882   -4.1601   -3.5359 C   0  0  0  0  0  0  0  0  0  0  0  0
    1.0002   -4.8272   -2.6643 O   0  0  0  0  0  0  0  0  0  0  0  0
    2.7791   -4.1355   -3.8919 O   0  0  0  0  0  0  0  0  0  0  0  0
   -1.1745   -4.4703   -5.5127 O   0  0  0  0  0  0  0  0  0  0  0  0
   -0.7640   -3.0307   -3.8334 C   0  0  0  0  0  0  0  0  0  0  0  0
   -1.5814   -2.1190   -4.3372 C   0  0  0  0  0  0  0  0  0  0  0  0
  1  2  1  0
  1  4  1  0
  2  3  1  0
  2 21  1  0
  3  5  1  0
  4  5  2  0
  4  6  1  0
  5 13  1  0
  6  7  2  0
  6  8  1  0
  7  9  1  0
  8 10  2  0
  9 11  2  0
  9 12  1  0
 10 11  1  0
 10 17  1  0
 11 22  1  0
 12 15  1  0
 13 14  1  0
 15 16  1  0
 17 18  1  0
 18 19  1  0
 18 24  1  0
 18 28  1  0
 19 20  1  0
 19 27  1  0
 22 23  1  0
 24 25  2  0
 24 26  1  0
 28 29  2  0
M  END

$$$$

     RDKit          3D

 31 33  0  0  0  0  0  0  0  0999 V2000
    0.0000    0.0000    0.0000 C   0  0  0  0  0  0  0  0  0  0  0  0
    0.0000    0.0000    1.4346 C   0  0  0  0  0  0  0  0  0  0  0  0
    1.5469    0.0000    2.1244 S   0  0  0  0  0  0  0  0  0  0  0  0
    1.3128    0.0645   -0.4647 C   0  0  0  0  0  0  0  0  0  0  0  0
    2.3528    0.1669    0.4700 C   0  0  0  0  0  0  0  0  0  0  0  0
   -1.1263    0.0000   -0.9018 C   0  0  0  0  0  0  0  0  0  0  0  0
   -1.0771    0.2476   -2.1191 O   0  0  0  0  0  0  0  0  0  0  0  0
    1.7580    0.0280   -1.8718 C   0  0  0  0  0  0  0  0  0  0  0  0
    3.6651    0.2952    0.2831 N   0  0  0  0  0  0  0  0  0  0  0  0
   -2.2939   -0.2925   -0.3501 O   0  0  0  0  0  0  0  0  0  0  0  0
    4.8222    0.3540    1.0441 C   0  0  0  0  0  0  0  0  0  0  0  0
    4.6804    0.1938    2.4217 C   0  0  0  0  0  0  0  0  0  0  0  0
    6.0958    0.5545    0.5136 C   0  0  0  0  0  0  0  0  0  0  0  0
    5.8941    0.2181    3.0576 C   0  0  0  0  0  0  0  0  0  0  0  0
    7.3163    0.5783    1.1533 C   0  0  0  0  0  0  0  0  0  0  0  0
    7.2105    0.3740    2.5534 C   0  0  0  0  0  0  0  0  0  0  0  0
   -1.1194    0.0000    2.1559 N   0  0  0  0  0  0  0  0  0  0  0  0
    8.3760    0.4398    3.2256 N   0  0  0  0  0  0  0  0  0  0  0  0
    8.2320    0.2058    4.6589 C   0  0  0  0  0  0  0  0  0  0  0  0
   -3.4228   -0.3546   -1.2064 C   0  0  0  0  0  0  0  0  0  0  0  0
    8.8116    0.9066    0.3626 Cl  0  0  0  0  0  0  0  0  0  0  0  0
    9.7383    0.3087    4.9890 C   0  0  0  0  0  0  0  0  0  0  0  0
    9.7545    0.5374    2.8406 C   0  0  0  0  0  0  0  0  0  0  0  0
   -1.3971    0.0552    3.5210 C   0  0  0  0  0  0  0  0  0  0  0  0
   -2.7573    0.0874    3.8914 C   0  0  0  0  0  0  0  0  0  0  0  0
   -0.3729    0.0637    4.4669 C   0  0  0  0  0  0  0  0  0  0  0  0
   -3.1523    0.1950    5.1910 C   0  0  0  0  0  0  0  0  0  0  0  0
   -0.7695    0.1733    5.7740 C   0  0  0  0  0  0  0  0  0  0  0  0
   -2.1874    0.2800    6.2381 C   0  0  0  0  0  0  0  0  0  0  0  0
   -2.6213    0.4326    7.4960 N   0  0  0  0  0  0  0  0  0  0  0  0
   -1.7729    0.7766    8.6219 C   0  0  0  0  0  0  0  0  0  0  0  0
  1  2  1  0
  1  4  1  0
  1  6  1  0
  2  3  1  0
  2 17  1  0
  3  5  1  0
  4  5  1  0
  4  8  1  0
  5  9  1  0
  6  7  2  0
  6 10  1  0
  9 11  1  0
 10 20  1  0
 11 12  2  0
 11 13  1  0
 12 14  1  0
 13 15  2  0
 14 16  2  0
 15 16  1  0
 15 21  1  0
 16 18  1  0
 17 24  1  0
 18 19  1  0
 18 23  1  0
 19 22  1  0
 24 25  1  0
 24 26  1  0
 25 27  2  0
 26 28  2  0
 27 29  1  0
 28 29  1  0
 29 30  1  0
 30 31  1  0
M  END

$$$$

     RDKit          3D

 17 18  0  0  0  0  0  0  0  0999 V2000
    0.0000    0.0000    0.0000 S   0  0  0  0  0  0  0  0  0  0  0  0
    0.0000    0.0000    1.7132 C   0  0  0  0  0  0  0  0  0  0  0  0
    1.2606    0.0000    2.2506 C   0  0  0  0  0  0  0  0  0  0  0  0
    1.7315    0.0000   -0.0722 C   0  0  0  0  0  0  0  0  0  0  0  0
    2.2611    0.0522    1.1485 C   0  0  0  0  0  0  0  0  0  0  0  0
   -1.2533    0.0000    2.3596 N   0  0  0  0  0  0  0  0  0  0  0  0
   -1.7666    1.0852    3.0526 C   0  0  0  0  0  0  0  0  0  0  0  0
   -1.1578    2.0833    3.2614 O   0  0  0  0  0  0  0  0  0  0  0  0
    3.7261    0.0058    1.3856 C   0  0  0  0  0  0  0  0  0  0  0  0
   -2.1219   -1.0584    2.3025 C   0  0  0  0  0  0  0  0  0  0  0  0
   -1.8724   -2.1274    1.7979 O   0  0  0  0  0  0  0  0  0  0  0  0
    1.4746   -0.0573    3.6848 C   0  0  0  0  0  0  0  0  0  0  0  0
    0.5284   -0.1080    4.4677 O   0  0  0  0  0  0  0  0  0  0  0  0
   -3.4001   -0.6810    3.0673 C   0  0  0  0  0  0  0  0  0  0  0  0
   -3.2022    0.7407    3.4460 C   0  0  0  0  0  0  0  0  0  0  0  0
    2.7056   -0.0013    4.0798 O   0  0  0  0  0  0  0  0  0  0  0  0
   -4.5608   -0.9559    2.1974 N   0  0  0  0  0  0  0  0  0  0  0  0
  1  2  1  0
  1  4  1  0
  2  3  2  0
  2  6  1  0
  3  5  1  0
  3 12  1  0
  4  5  2  0
  5  9  1  0
  6  7  1  0
  6 10  1  0
  7  8  2  0
  7 15  1  0
 10 11  2  0
 10 14  1  0
 12 13  2  0
 12 16  1  0
 14 15  1  0
 14 17  1  0
M  END

$$$$

     RDKit          3D

 30 32  0  0  0  0  0  0  0  0999 V2000
    0.0000    0.0000    0.0000 S   0  0  0  0  0  0  0  0  0  0  0  0
    0.0000    0.0000    1.7132 C   0  0  0  0  0  0  0  0  0  0  0  0
    1.2987    0.0000    2.2418 C   0  0  0  0  0  0  0  0  0  0  0  0
    1.6841    0.1659   -0.0706 C   0  0  0  0  0  0  0  0  0  0  0  0
    2.2381    0.1659    1.2001 C   0  0  0  0  0  0  0  0  0  0  0  0
    2.4012    0.2939   -1.3546 C   0  0  0  0  0  0  0  0  0  0  0  0
   -1.2689    0.1250    2.3708 C   0  0  0  0  0  0  0  0  0  0  0  0
   -1.2944    0.3835    3.6235 N   0  0  0  0  0  0  0  0  0  0  0  0
   -2.4562    0.6341    4.2575 N   0  0  0  0  0  0  0  0  0  0  0  0
   -3.6368    1.1978    3.8239 C   0  0  0  0  0  0  0  0  0  0  0  0
   -4.6260    1.2165    4.5173 O   0  0  0  0  0  0  0  0  0  0  0  0
    3.5625    0.5883   -1.4434 O   0  0  0  0  0  0  0  0  0  0  0  0
    1.5463    0.0528   -2.3468 O   0  0  0  0  0  0  0  0  0  0  0  0
    2.1030    0.1987   -3.6342 C   0  0  0  0  0  0  0  0  0  0  0  0
   -3.5760    1.8535    2.4932 C   0  0  0  0  0  0  0  0  0  0  0  0
   -2.6448    2.8575    2.1917 C   0  0  0  0  0  0  0  0  0  0  0  0
   -4.5089    1.5611    1.4657 C   0  0  0  0  0  0  0  0  0  0  0  0
   -2.5853    3.5017    1.0364 N   0  0  0  0  0  0  0  0  0  0  0  0
   -4.4438    2.2160    0.2903 N   0  0  0  0  0  0  0  0  0  0  0  0
   -3.5308    3.1759    0.1455 C   0  0  0  0  0  0  0  0  0  0  0  0
   -5.4589    0.5964    1.5138 N   0  0  0  0  0  0  0  0  0  0  0  0
   -5.8067   -0.2286    2.6452 C   0  0  0  0  0  0  0  0  0  0  0  0
   -3.4516    3.9762   -1.1330 C   0  0  0  0  0  0  0  0  0  0  0  0
   -6.8036    0.4477    3.5277 C   0  0  0  0  0  0  0  0  0  0  0  0
   -6.6214    1.1545    4.6782 C   0  0  0  0  0  0  0  0  0  0  0  0
   -8.1182    0.3796    3.1467 O   0  0  0  0  0  0  0  0  0  0  0  0
   -7.9289    1.5881    5.0156 C   0  0  0  0  0  0  0  0  0  0  0  0
   -8.7915    1.0947    4.0573 C   0  0  0  0  0  0  0  0  0  0  0  0
   -4.6981    4.1893   -1.7006 O   0  0  0  0  0  0  0  0  0  0  0  0
   -5.5779    4.9602   -0.9276 C   0  0  0  0  0  0  0  0  0  0  0  0
  1  2  1  0
  1  4  1  0
  2  3  1  0
  2  7  1  0
  3  5  1  0
  4  5  2  0
  4  6  1  0
  6 12  2  0
  6 13  1  0
  7  8  2  3
  8  9  1  0
  9 10  1  0
 10 11  2  0
 10 15  1  0
 13 14  1  0
 15 16  2  0
 15 17  1  0
 16 18  1  0
 17 19  2  0
 17 21  1  0
 18 20  2  0
 19 20  1  0
 20 23  1  0
 21 22  1  0
 22 24  1  0
 23 29  1  0
 24 25  2  0
 24 26  1  0
 25 27  1  0
 26 28  1  0
 27 28  2  0
 29 30  1  0
M  END

$$$$

     RDKit          3D

 27 29  0  0  0  0  0  0  0  0999 V2000
    0.0000    0.0000    0.0000 C   0  0  0  0  0  0  0  0  0  0  0  0
    0.0000    0.0000    1.4346 C   0  0  0  0  0  0  0  0  0  0  0  0
    1.3006    0.0000    1.8906 C   0  0  0  0  0  0  0  0  0  0  0  0
    1.1904    0.0000   -0.6139 C   0  0  0  0  0  0  0  0  0  0  0  0
    2.4535    0.1874    0.5283 S   0  0  0  0  0  0  0  0  0  0  0  0
   -1.1786    0.0000    2.1941 C   0  0  0  0  0  0  0  0  0  0  0  0
   -2.1869    0.0000    2.7140 N   0  0  0  0  0  0  0  0  0  0  0  0
    1.7335   -0.0570    3.2658 C   0  0  0  0  0  0  0  0  0  0  0  0
    1.1286   -0.3915    4.4673 C   0  0  0  0  0  0  0  0  0  0  0  0
    3.0122    0.3335    3.5662 N   0  0  0  0  0  0  0  0  0  0  0  0
    2.1012   -0.3042    5.4959 C   0  0  0  0  0  0  0  0  0  0  0  0
    3.2514    0.1613    4.8885 N   0  0  0  0  0  0  0  0  0  0  0  0
    2.0042   -0.4934    6.9826 C   0  0  0  0  0  0  0  0  0  0  0  0
    3.3353   -0.3599    7.7206 C   0  0  0  0  0  0  0  0  0  0  0  0
    1.3692   -1.8699    7.1732 C   0  0  0  0  0  0  0  0  0  0  0  0
    3.9858    0.9859    2.7964 C   0  0  0  0  0  0  0  0  0  0  0  0
    5.2797    0.4793    2.6835 C   0  0  0  0  0  0  0  0  0  0  0  0
    3.6619    2.1648    2.1100 C   0  0  0  0  0  0  0  0  0  0  0  0
    6.2937    1.1182    1.9715 C   0  0  0  0  0  0  0  0  0  0  0  0
    4.6699    2.8008    1.4023 C   0  0  0  0  0  0  0  0  0  0  0  0
    6.0211    2.3337    1.3279 C   0  0  0  0  0  0  0  0  0  0  0  0
    2.0828    2.8768    2.1632 Cl  0  0  0  0  0  0  0  0  0  0  0  0
    7.2377    3.1511    0.3664 Cl  0  0  0  0  0  0  0  0  0  0  0  0
    1.0191    0.5806    7.4698 C   0  0  0  0  0  0  0  0  0  0  0  0
    7.5238    0.5637    1.8488 N   0  0  0  0  0  0  0  0  0  0  0  0
   -0.2780   -0.7621    4.7649 C   0  0  0  0  0  0  0  0  0  0  0  0
    5.6507   -1.0164    3.4544 Cl  0  0  0  0  0  0  0  0  0  0  0  0
  1  2  1  0
  1  4  2  0
  2  3  2  0
  2  6  1  0
  3  5  1  0
  3  8  1  0
  4  5  1  0
  6  7  3  0
  8  9  2  0
  8 10  1  0
  9 11  1  0
  9 26  1  0
 10 12  1  0
 10 16  1  0
 11 12  2  0
 11 13  1  0
 13 14  1  0
 13 15  1  0
 13 24  1  0
 16 17  2  0
 16 18  1  0
 17 19  1  0
 17 27  1  0
 18 20  2  0
 18 22  1  0
 19 21  2  0
 19 25  1  0
 20 21  1  0
 21 23  1  0
M  END

$$$$

     RDKit          3D

 28 29  0  0  0  0  0  0  0  0999 V2000
    0.0000    0.0000    0.0000 C   0  0  0  0  0  0  0  0  0  0  0  0
    0.0000    0.0000    1.4511 C   0  0  0  0  0  0  0  0  0  0  0  0
    1.6448    0.0000    2.0277 S   0  0  0  0  0  0  0  0  0  0  0  0
    1.2514    0.0615   -0.5743 C   0  0  0  0  0  0  0  0  0  0  0  0
    2.3403   -0.1000    0.3071 C   0  0  0  0  0  0  0  0  0  0  0  0
    3.5968   -0.1425    0.0701 N   0  0  0  0  0  0  0  0  0  0  0  0
    1.5405    0.1339   -2.0115 C   0  0  0  0  0  0  0  0  0  0  0  0
    1.0095    1.1954   -2.7730 C   0  0  0  0  0  0  0  0  0  0  0  0
    2.2692   -0.8812   -2.6115 C   0  0  0  0  0  0  0  0  0  0  0  0
    1.2074    1.1461   -4.1684 C   0  0  0  0  0  0  0  0  0  0  0  0
    2.5241   -0.8810   -3.9740 C   0  0  0  0  0  0  0  0  0  0  0  0
    1.9986    0.1410   -4.7227 C   0  0  0  0  0  0  0  0  0  0  0  0
    4.4671   -0.3672    1.1253 C   0  0  0  0  0  0  0  0  0  0  0  0
    4.1116   -0.5288    2.2760 O   0  0  0  0  0  0  0  0  0  0  0  0
   -1.5163   -0.0745   -0.8765 S   0  0  0  0  0  0  0  0  0  0  0  0
    0.2734    2.1907   -2.1672 O   0  0  0  0  0  0  0  0  0  0  0  0
   -0.9182    0.0516    2.4776 C   0  0  0  0  0  0  0  0  0  0  0  0
   -2.2502    0.1922    2.4776 N   0  0  0  0  0  0  0  0  0  0  0  0
   -2.8443    0.2541    3.8001 C   0  0  0  0  0  0  0  0  0  0  0  0
    5.7574   -0.4423    0.7458 N   0  0  0  0  0  0  0  0  0  0  0  0
    0.7245    2.0474   -5.0689 O   0  0  0  0  0  0  0  0  0  0  0  0
    0.9285    3.0273   -1.2402 C   0  0  0  0  0  0  0  0  0  0  0  0
   -0.5514    2.6654   -4.9113 C   0  0  0  0  0  0  0  0  0  0  0  0
   -3.1671    0.4778    1.4009 C   0  0  0  0  0  0  0  0  0  0  0  0
   -1.2593   -1.1004   -2.3505 C   0  0  0  0  0  0  0  0  0  0  0  0
   -3.6572    1.9338    1.4364 C   0  0  0  0  0  0  0  0  0  0  0  0
   -3.3331    1.6871    4.0047 C   0  0  0  0  0  0  0  0  0  0  0  0
   -4.2442    2.1031    2.9891 O   0  0  0  0  0  0  0  0  0  0  0  0
  1  2  1  0
  1  4  2  0
  1 15  1  0
  2  3  1  0
  2 17  2  3
  3  5  1  0
  4  5  1  0
  4  7  1  0
  5  6  2  3
  6 13  1  0
  7  8  2  0
  7  9  1  0
  8 10  1  0
  8 16  1  0
  9 11  2  0
 10 12  2  0
 10 21  1  0
 11 12  1  0
 13 14  2  0
 13 20  1  0
 15 25  1  0
 16 22  1  0
 17 18  1  0
 18 19  1  0
 18 24  1  0
 19 27  1  0
 21 23  1  0
 24 26  1  0
 27 28  1  0
M  END

$$$$

     RDKit          3D

 31 33  0  0  0  0  0  0  0  0999 V2000
    0.0000    0.0000    0.0000 C   0  0  0  0  0  0  0  0  0  0  0  0
    0.0000    0.0000    1.4183 C   0  0  0  0  0  0  0  0  0  0  0  0
    1.3081    0.0000    1.8769 C   0  0  0  0  0  0  0  0  0  0  0  0
    1.2731    0.0625   -0.5842 C   0  0  0  0  0  0  0  0  0  0  0  0
    2.5151   -0.0598    0.5321 S   0  0  0  0  0  0  0  0  0  0  0  0
    1.6522    0.2419   -1.9054 N   0  0  0  0  0  0  0  0  0  0  0  0
    1.7463   -0.0694    3.5727 S   0  0  0  0  0  0  0  0  0  0  0  0
   -1.1908    0.0585    2.2745 C   0  0  0  0  0  0  0  0  0  0  0  0
   -1.4567   -1.0032    3.1508 C   0  0  0  0  0  0  0  0  0  0  0  0
   -2.0752    1.1362    2.2745 C   0  0  0  0  0  0  0  0  0  0  0  0
   -2.5586   -0.8815    3.9698 C   0  0  0  0  0  0  0  0  0  0  0  0
   -3.1765    1.2575    3.0943 C   0  0  0  0  0  0  0  0  0  0  0  0
   -3.3496    0.2549    3.9053 C   0  0  0  0  0  0  0  0  0  0  0  0
   -1.1174   -0.2223   -0.9122 C   0  0  0  0  0  0  0  0  0  0  0  0
   -1.0230    0.0057   -2.1020 O   0  0  0  0  0  0  0  0  0  0  0  0
    2.8071   -0.2489   -2.4562 C   0  0  0  0  0  0  0  0  0  0  0  0
    3.4457   -1.0626   -1.7923 O   0  0  0  0  0  0  0  0  0  0  0  0
    3.2588    0.1513   -3.7942 C   0  0  0  0  0  0  0  0  0  0  0  0
    4.2295   -0.4993   -4.4796 C   0  0  0  0  0  0  0  0  0  0  0  0
    4.8094   -0.2532   -5.6790 N   0  0  0  0  0  0  0  0  0  0  0  0
    2.5843    1.3462   -4.4048 C   0  0  0  0  0  0  0  0  0  0  0  0
   -2.2061   -0.8042   -0.4128 O   0  0  0  0  0  0  0  0  0  0  0  0
   -3.3300   -0.9940   -1.2431 C   0  0  0  0  0  0  0  0  0  0  0  0
    3.1271   -1.1521    3.4016 C   0  0  0  0  0  0  0  0  0  0  0  0
    4.0741   -1.0085    4.3159 N   0  0  0  0  0  0  0  0  0  0  0  0
    3.1811   -2.0041    2.3796 N   0  0  0  0  0  0  0  0  0  0  0  0
    5.1395   -1.7601    4.1998 C   0  0  0  0  0  0  0  0  0  0  0  0
    4.2587   -2.7648    2.2647 C   0  0  0  0  0  0  0  0  0  0  0  0
    5.2402   -2.6648    3.1439 C   0  0  0  0  0  0  0  0  0  0  0  0
   -4.4953    0.4537    4.7873 N   0  0  0  0  0  0  0  0  0  0  0  0
   -5.1849    1.4387    4.6696 O   0  0  0  0  0  0  0  0  0  0  0  0
  1  2  1  0
  1  4  1  0
  1 14  1  0
  2  3  2  0
  2  8  1  0
  3  5  1  0
  3  7  1  0
  4  5  1  0
  4  6  1  0
  6 16  1  0
  7 24  1  0
  8  9  2  0
  8 10  1  0
  9 11  1  0
 10 12  2  0
 11 13  2  0
 12 13  1  0
 13 30  1  0
 14 15  2  0
 14 22  1  0
 16 17  2  0
 16 18  1  0
 18 19  2  3
 18 21  1  0
 19 20  1  0
 22 23  1  0
 24 25  2  0
 24 26  1  0
 25 27  1  0
 26 28  2  0
 27 29  2  0
 28 29  1  0
 30 31  2  0
M  END

$$$$

     RDKit          3D

 12 12  0  0  0  0  0  0  0  0999 V2000
    0.0000    0.0000    0.0000 C   0  0  0  0  0  0  0  0  0  0  0  0
    0.0000    0.0000    1.3704 C   0  0  0  0  0  0  0  0  0  0  0  0
    1.5469    0.0000    2.0601 S   0  0  0  0  0  0  0  0  0  0  0  0
    1.3203   -0.0649   -0.4674 C   0  0  0  0  0  0  0  0  0  0  0  0
    2.3182   -0.1664    0.5354 C   0  0  0  0  0  0  0  0  0  0  0  0
    1.6062   -0.1365   -1.8883 C   0  0  0  0  0  0  0  0  0  0  0  0
    2.7697   -0.3072   -2.2456 O   0  0  0  0  0  0  0  0  0  0  0  0
    0.5050   -0.0121   -2.9274 C   0  0  0  0  0  0  0  0  0  0  0  0
   -0.2589   -1.3250   -2.9503 C   0  0  0  0  0  0  0  0  0  0  0  0
   -1.4873   -1.3496   -2.7179 N   0  0  0  0  0  0  0  0  0  0  0  0
    0.4705   -2.5852   -3.2409 C   0  0  0  0  0  0  0  0  0  0  0  0
   -2.2524   -2.5423   -2.7776 C   0  0  0  0  0  0  0  0  0  0  0  0
  1  2  2  0
  1  4  1  0
  2  3  1  0
  3  5  1  0
  4  5  1  0
  4  6  1  0
  6  7  2  0
  6  8  1  0
  8  9  1  0
  9 10  2  3
  9 11  1  0
 10 12  1  0
M  END

$$$$

     RDKit          3D

 22 25  0  0  0  0  0  0  0  0999 V2000
    0.0000    0.0000    0.0000 C   0  0  0  0  0  0  0  0  0  0  0  0
    0.0000    0.0000    1.3548 C   0  0  0  0  0  0  0  0  0  0  0  0
    1.5228    0.0000    2.0039 S   0  0  0  0  0  0  0  0  0  0  0  0
    1.2877    0.0633   -0.5909 C   0  0  0  0  0  0  0  0  0  0  0  0
    2.2233    0.0567    0.4533 C   0  0  0  0  0  0  0  0  0  0  0  0
    1.7852    0.0318   -1.9187 C   0  0  0  0  0  0  0  0  0  0  0  0
    3.1814    0.0641   -2.1658 C   0  0  0  0  0  0  0  0  0  0  0  0
    0.8497   -0.0898   -2.9777 C   0  0  0  0  0  0  0  0  0  0  0  0
    3.9653    0.0713   -0.9936 C   0  0  0  0  0  0  0  0  0  0  0  0
    3.7339   -0.0174   -3.4873 C   0  0  0  0  0  0  0  0  0  0  0  0
    1.3764   -0.1647   -4.2321 C   0  0  0  0  0  0  0  0  0  0  0  0
    3.5731    0.0523    0.2709 N   0  0  0  0  0  0  0  0  0  0  0  0
    5.2747    0.0536   -1.2747 O   0  0  0  0  0  0  0  0  0  0  0  0
    2.8686   -0.0710   -4.5182 C   0  0  0  0  0  0  0  0  0  0  0  0
    5.1998   -0.1291   -3.7942 C   0  0  0  0  0  0  0  0  0  0  0  0
    0.6284   -0.3407   -5.3857 N   0  0  0  0  0  0  0  0  0  0  0  0
    1.5866   -0.1916   -6.4764 C   0  0  0  0  0  0  0  0  0  0  0  0
    3.0351   -0.3057   -5.9499 C   0  0  0  0  0  0  0  0  0  0  0  0
    5.7547   -1.4044   -3.3516 C   0  0  0  0  0  0  0  0  0  0  0  0
    6.1133   -2.4724   -2.9550 C   0  0  0  0  0  0  0  0  0  0  0  0
    5.5822   -0.0536   -5.0597 F   0  0  0  0  0  0  0  0  0  0  0  0
    5.8658    0.8388   -3.1513 F   0  0  0  0  0  0  0  0  0  0  0  0
  1  2  2  0
  1  4  1  0
  2  3  1  0
  3  5  1  0
  4  5  2  0
  4  6  1  0
  5 12  1  0
  6  7  2  0
  6  8  1  0
  7  9  1  0
  7 10  1  0
  8 11  2  0
  9 12  2  0
  9 13  1  0
 10 14  2  0
 10 15  1  0
 11 14  1  0
 11 16  1  0
 14 18  1  0
 15 19  1  0
 15 21  1  0
 15 22  1  0
 16 17  1  0
 17 18  1  0
 19 20  3  0
M  END

$$$$

     RDKit          3D

 30 32  0  0  0  0  0  0  0  0999 V2000
    0.0000    0.0000    0.0000 C   0  0  0  0  0  0  0  0  0  0  0  0
    0.0000    0.0000    1.4933 C   0  0  0  0  0  0  0  0  0  0  0  0
    1.6010    0.0000    2.2071 S   0  0  0  0  0  0  0  0  0  0  0  0
    1.4034   -0.0689   -0.3628 C   0  0  0  0  0  0  0  0  0  0  0  0
    2.3010    0.0386    0.6462 C   0  0  0  0  0  0  0  0  0  0  0  0
    2.0742   -0.0433   -1.7062 C   0  0  0  0  0  0  0  0  0  0  0  0
    3.4979   -0.4265   -1.4693 N   0  0  0  0  0  0  0  0  0  0  0  0
    4.2672    0.3633   -0.4369 C   0  0  0  0  0  0  0  0  0  0  0  0
    1.3808   -0.9354   -2.7087 C   0  0  0  0  0  0  0  0  0  0  0  0
    0.7723   -0.5484   -3.9300 C   0  0  0  0  0  0  0  0  0  0  0  0
    1.1433   -2.2491   -2.3358 C   0  0  0  0  0  0  0  0  0  0  0  0
    0.0651   -1.3546   -4.7195 N   0  0  0  0  0  0  0  0  0  0  0  0
    0.3839   -3.0840   -3.1813 C   0  0  0  0  0  0  0  0  0  0  0  0
   -0.0018   -2.5995   -4.3205 C   0  0  0  0  0  0  0  0  0  0  0  0
   -1.0217   -3.5193   -5.4260 S   0  0  0  0  0  0  0  0  0  0  0  0
   -1.9497   -4.3177   -4.0589 C   0  0  0  0  0  0  0  0  0  0  0  0
    1.6328   -2.7112   -1.1512 O   0  0  0  0  0  0  0  0  0  0  0  0
   -2.4318   -3.3386   -3.0397 C   0  0  0  0  0  0  0  0  0  0  0  0
   -1.9319   -3.3050   -1.7558 C   0  0  0  0  0  0  0  0  0  0  0  0
   -3.3675   -2.3807   -3.4275 C   0  0  0  0  0  0  0  0  0  0  0  0
   -2.3753   -2.3455   -0.8590 C   0  0  0  0  0  0  0  0  0  0  0  0
   -3.8018   -1.4314   -2.5397 C   0  0  0  0  0  0  0  0  0  0  0  0
   -3.3331   -1.3804   -1.2011 C   0  0  0  0  0  0  0  0  0  0  0  0
    0.8768    0.7353   -4.3746 N   0  0  0  0  0  0  0  0  0  0  0  0
   -0.9745    0.0479   -0.7007 O   0  0  0  0  0  0  0  0  0  0  0  0
   -1.8142   -2.3207    0.3910 O   0  0  0  0  0  0  0  0  0  0  0  0
   -2.0383   -1.1343    1.1196 C   0  0  0  0  0  0  0  0  0  0  0  0
    0.0552   -4.4899   -2.8001 C   0  0  0  0  0  0  0  0  0  0  0  0
   -0.5599   -5.0450   -3.9412 O   0  0  0  0  0  0  0  0  0  0  0  0
   -3.5174   -0.7677    1.0085 C   0  0  0  0  0  0  0  0  0  0  0  0
  1  2  1  0
  1  4  1  0
  1 25  2  0
  2  3  1  0
  3  5  1  0
  4  5  2  0
  4  6  1  0
  6  7  1  0
  6  9  1  0
  7  8  1  0
  9 10  2  0
  9 11  1  0
 10 12  1  0
 10 24  1  0
 11 13  2  0
 11 17  1  0
 12 14  2  0
 13 14  1  0
 13 28  1  0
 14 15  1  0
 15 16  1  0
 16 18  1  0
 18 19  2  0
 18 20  1  0
 19 21  1  0
 20 22  2  0
 21 23  2  0
 21 26  1  0
 22 23  1  0
 26 27  1  0
 27 30  1  0
 28 29  1  0
M  END

$$$$

     RDKit          3D

 31 34  0  0  0  0  0  0  0  0999 V2000
    0.0000    0.0000    0.0000 C   0  0  0  0  0  0  0  0  0  0  0  0
    0.0000    0.0000    1.3782 C   0  0  0  0  0  0  0  0  0  0  0  0
    1.6827    0.0000    1.9372 S   0  0  0  0  0  0  0  0  0  0  0  0
    1.2473   -0.1228   -0.6463 C   0  0  0  0  0  0  0  0  0  0  0  0
    2.2783   -0.1701    0.3856 C   0  0  0  0  0  0  0  0  0  0  0  0
   -0.9971    0.0490    2.2711 N   0  0  0  0  0  0  0  0  0  0  0  0
    1.7183   -0.2234   -1.9293 C   0  0  0  0  0  0  0  0  0  0  0  0
    1.2178   -0.2582   -3.2821 C   0  0  0  0  0  0  0  0  0  0  0  0
   -0.2165   -0.2585   -3.8086 C   0  0  0  0  0  0  0  0  0  0  0  0
   -1.1059    0.5292   -3.5538 O   0  0  0  0  0  0  0  0  0  0  0  0
    2.1108   -0.3220   -4.3196 N   0  0  0  0  0  0  0  0  0  0  0  0
    1.4832   -0.3968   -5.4574 C   0  0  0  0  0  0  0  0  0  0  0  0
    2.0574   -0.4232   -6.7989 C   0  0  0  0  0  0  0  0  0  0  0  0
    3.4380   -0.6183   -6.9461 C   0  0  0  0  0  0  0  0  0  0  0  0
    1.3419   -0.2268   -7.9697 C   0  0  0  0  0  0  0  0  0  0  0  0
    3.9474   -0.5864   -8.2435 C   0  0  0  0  0  0  0  0  0  0  0  0
    1.8621   -0.1927   -9.2887 C   0  0  0  0  0  0  0  0  0  0  0  0
    3.2415   -0.3881   -9.3460 N   0  0  0  0  0  0  0  0  0  0  0  0
   -0.0449   -0.5620   -5.1502 N   0  0  0  0  0  0  0  0  0  0  0  0
    1.2156    0.0421  -10.4469 N   0  0  0  0  0  0  0  0  0  0  0  0
    5.3885   -0.8369   -8.5437 C   0  0  0  0  0  0  0  0  0  0  0  0
   -1.1731   -0.6033   -6.0221 C   0  0  0  0  0  0  0  0  0  0  0  0
   -1.5258    0.5076   -6.8015 C   0  0  0  0  0  0  0  0  0  0  0  0
   -1.9044   -1.7552   -6.1500 C   0  0  0  0  0  0  0  0  0  0  0  0
   -2.6655    0.4367   -7.6011 C   0  0  0  0  0  0  0  0  0  0  0  0
   -3.0497   -1.8293   -6.9553 C   0  0  0  0  0  0  0  0  0  0  0  0
   -3.3948   -0.7235   -7.5894 C   0  0  0  0  0  0  0  0  0  0  0  0
   -1.1551    0.4133   -0.8811 C   0  0  0  0  0  0  0  0  0  0  0  0
    4.3545   -0.9334   -5.7988 C   0  0  0  0  0  0  0  0  0  0  0  0
   -3.7791   -2.9634   -7.1511 N   0  0  0  0  0  0  0  0  0  0  0  0
   -3.2902   -4.2513   -6.6691 C   0  0  0  0  0  0  0  0  0  0  0  0
  1  2  2  0
  1  4  1  0
  1 28  1  0
  2  3  1  0
  2  6  1  0
  3  5  1  0
  4  5  1  0
  4  7  2  3
  7  8  1  0
  8  9  1  0
  8 11  1  0
  9 10  2  0
  9 19  1  0
 11 12  2  0
 12 13  1  0
 12 19  1  0
 13 14  2  0
 13 15  1  0
 14 16  1  0
 14 29  1  0
 15 17  2  0
 16 18  2  0
 16 21  1  0
 17 18  1  0
 17 20  1  0
 19 22  1  0
 22 23  2  0
 22 24  1  0
 23 25  1  0
 24 26  2  0
 25 27  2  0
 26 27  1  0
 26 30  1  0
 30 31  1  0
M  END

$$$$

     RDKit          3D

 31 31  0  0  0  0  0  0  0  0999 V2000
    0.0000    0.0000    0.0000 C   0  0  0  0  0  0  0  0  0  0  0  0
    0.0000    0.0000    1.3317 C   0  0  0  0  0  0  0  0  0  0  0  0
    1.3222    0.0000    1.8447 C   0  0  0  0  0  0  0  0  0  0  0  0
    1.2689    0.1250   -0.6575 C   0  0  0  0  0  0  0  0  0  0  0  0
    2.4765    0.0402    0.6937 S   0  0  0  0  0  0  0  0  0  0  0  0
    1.4663    0.2870   -1.8889 N   0  0  0  0  0  0  0  0  0  0  0  0
    2.5591    0.4628   -2.5878 N   0  0  0  0  0  0  0  0  0  0  0  0
    3.4177   -0.4638   -2.7899 C   0  0  0  0  0  0  0  0  0  0  0  0
    4.5687   -0.2373   -3.6014 C   0  0  0  0  0  0  0  0  0  0  0  0
    5.5225   -1.1670   -3.8023 C   0  0  0  0  0  0  0  0  0  0  0  0
    1.6225    0.1530    3.1330 N   0  0  0  0  0  0  0  0  0  0  0  0
    6.7004   -0.9734   -4.5531 C   0  0  0  0  0  0  0  0  0  0  0  0
    7.6507   -1.9186   -4.6871 C   0  0  0  0  0  0  0  0  0  0  0  0
   -1.2770    0.0000   -0.8229 C   0  0  0  0  0  0  0  0  0  0  0  0
    8.8254   -1.7894   -5.4713 C   0  0  0  0  0  0  0  0  0  0  0  0
    9.7868   -2.7331   -5.6753 C   0  0  0  0  0  0  0  0  0  0  0  0
    9.7938   -4.0662   -5.1233 C   0  0  0  0  0  0  0  0  0  0  0  0
    9.0064   -4.5939   -4.3408 O   0  0  0  0  0  0  0  0  0  0  0  0
   -2.3432   -0.7124   -0.1616 O   0  0  0  0  0  0  0  0  0  0  0  0
   10.9086   -4.7336   -5.6063 N   0  0  0  0  0  0  0  0  0  0  0  0
   -1.6925    1.3699   -1.0032 N   0  0  0  0  0  0  0  0  0  0  0  0
   -2.3908   -1.9761   -0.6028 C   0  0  0  0  0  0  0  0  0  0  0  0
   -1.5852   -2.1284   -1.7205 C   0  0  0  0  0  0  0  0  0  0  0  0
   11.1905   -6.0856   -5.1607 C   0  0  0  0  0  0  0  0  0  0  0  0
   11.7888   -4.0813   -6.4162 C   0  0  0  0  0  0  0  0  0  0  0  0
   13.1919   -4.6417   -7.0450 S   0  0  0  0  0  0  0  0  0  0  0  0
   -0.9522    2.3746   -1.7107 C   0  0  0  0  0  0  0  0  0  0  0  0
   12.3423   -6.0780   -4.1569 C   0  0  0  0  0  0  0  0  0  0  0  0
   -2.7927    1.6730   -0.2446 C   0  0  0  0  0  0  0  0  0  0  0  0
   -3.2482    2.7765   -0.1108 O   0  0  0  0  0  0  0  0  0  0  0  0
   -1.4607   -3.4005   -2.2970 C   0  0  0  0  0  0  0  0  0  0  0  0
  1  2  2  0
  1  4  1  0
  1 14  1  0
  2  3  1  0
  3  5  1  0
  3 11  1  0
  4  5  1  0
  4  6  2  3
  6  7  1  0
  7  8  2  3
  8  9  1  0
  9 10  2  3
 10 12  1  0
 12 13  2  3
 13 15  1  0
 14 19  1  0
 14 21  1  0
 15 16  2  3
 16 17  1  0
 17 18  2  0
 17 20  1  0
 19 22  1  0
 20 24  1  0
 20 25  1  0
 21 27  1  0
 21 29  1  0
 22 23  2  3
 23 31  1  0
 24 28  1  0
 25 26  1  0
 29 30  2  0
M  END

$$$$

     RDKit          3D

 30 33  0  0  0  0  0  0  0  0999 V2000
    0.0000    0.0000    0.0000 C   0  0  0  0  0  0  0  0  0  0  0  0
    0.0000    0.0000    1.6937 S   0  0  0  0  0  0  0  0  0  0  0  0
    1.6744    0.0000    1.7075 C   0  0  0  0  0  0  0  0  0  0  0  0
    1.3160   -0.1296   -0.5349 C   0  0  0  0  0  0  0  0  0  0  0  0
    2.3058   -0.0712    0.4564 C   0  0  0  0  0  0  0  0  0  0  0  0
    3.8132    0.0246    0.4494 C   0  0  0  0  0  0  0  0  0  0  0  0
    4.1355    1.4478    0.4739 N   0  0  0  0  0  0  0  0  0  0  0  0
    4.5176   -0.7574   -0.6581 C   0  0  0  0  0  0  0  0  0  0  0  0
    1.4377   -0.1947   -1.8826 N   0  0  0  0  0  0  0  0  0  0  0  0
    2.6291   -0.4852   -2.6271 C   0  0  0  0  0  0  0  0  0  0  0  0
    4.2457    2.3388   -0.5615 C   0  0  0  0  0  0  0  0  0  0  0  0
    4.1514    3.5393   -0.4640 O   0  0  0  0  0  0  0  0  0  0  0  0
    4.5502    1.7013   -1.7449 N   0  0  0  0  0  0  0  0  0  0  0  0
    4.6619    2.3664   -2.9468 C   0  0  0  0  0  0  0  0  0  0  0  0
    4.2808    3.6167   -3.3840 C   0  0  0  0  0  0  0  0  0  0  0  0
    5.2803    1.7663   -3.9822 N   0  0  0  0  0  0  0  0  0  0  0  0
    4.6200    3.7055   -4.7333 C   0  0  0  0  0  0  0  0  0  0  0  0
    5.2459    2.5485   -5.0879 N   0  0  0  0  0  0  0  0  0  0  0  0
    5.9223    0.4654   -3.9491 C   0  0  0  0  0  0  0  0  0  0  0  0
    7.0220    0.3993   -2.9283 C   0  0  0  0  0  0  0  0  0  0  0  0
    8.0343    1.2845   -2.7087 C   0  0  0  0  0  0  0  0  0  0  0  0
    7.0045   -0.5766   -2.0224 O   0  0  0  0  0  0  0  0  0  0  0  0
    8.7045    0.7049   -1.5908 C   0  0  0  0  0  0  0  0  0  0  0  0
    8.0403   -0.4419   -1.1596 N   0  0  0  0  0  0  0  0  0  0  0  0
    9.7993    1.1417   -0.8316 C   0  0  0  0  0  0  0  0  0  0  0  0
    8.3897   -1.1780   -0.0382 C   0  0  0  0  0  0  0  0  0  0  0  0
   10.0747    0.2536    0.2179 C   0  0  0  0  0  0  0  0  0  0  0  0
    9.4865   -0.8436    0.7686 C   0  0  0  0  0  0  0  0  0  0  0  0
    7.5772   -2.2536    0.2085 C   0  0  0  0  0  0  0  0  0  0  0  0
    7.8615   -2.9995    1.3612 C   0  0  0  0  0  0  0  0  0  0  0  0
  1  2  1  0
  1  4  1  0
  2  3  1  0
  3  5  1  0
  4  5  1  0
  4  9  1  0
  5  6  1  0
  6  7  1  0
  6  8  1  0
  7 11  1  0
  9 10  1  0
 11 12  2  0
 11 13  1  0
 13 14  1  0
 14 15  2  0
 14 16  1  0
 15 17  1  0
 16 18  1  0
 16 19  1  0
 17 18  2  0
 19 20  1  0
 20 21  2  0
 20 22  1  0
 21 23  1  0
 22 24  1  0
 23 24  1  0
 23 25  2  0
 24 26  1  0
 25 27  1  0
 26 28  1  0
 26 29  2  3
 27 28  2  0
 29 30  1  0
M  END

$$$$

     RDKit          3D

 14 14  0  0  0  0  0  0  0  0999 V2000
    0.0000    0.0000    0.0000 C   0  0  0  0  0  0  0  0  0  0  0  0
    0.0000    0.0000    1.4346 C   0  0  0  0  0  0  0  0  0  0  0  0
    1.2620    0.0000    1.9483 C   0  0  0  0  0  0  0  0  0  0  0  0
    1.2643   -0.1245   -0.5139 C   0  0  0  0  0  0  0  0  0  0  0  0
    2.4600   -0.0540    0.6836 S   0  0  0  0  0  0  0  0  0  0  0  0
    1.7074   -0.0586    3.3634 C   0  0  0  0  0  0  0  0  0  0  0  0
   -1.2184   -0.0599    2.3107 C   0  0  0  0  0  0  0  0  0  0  0  0
   -1.4286   -1.4770    2.8902 C   0  0  0  0  0  0  0  0  0  0  0  0
   -1.1793    0.1749   -0.8562 C   0  0  0  0  0  0  0  0  0  0  0  0
   -2.1839    0.7119   -0.4535 O   0  0  0  0  0  0  0  0  0  0  0  0
   -1.6743   -2.4211    1.8831 O   0  0  0  0  0  0  0  0  0  0  0  0
   -0.9901   -0.2561   -2.1101 O   0  0  0  0  0  0  0  0  0  0  0  0
   -2.0451   -0.0904   -3.0557 C   0  0  0  0  0  0  0  0  0  0  0  0
   -3.0847   -1.1875   -2.9031 C   0  0  0  0  0  0  0  0  0  0  0  0
  1  2  1  0
  1  4  2  0
  1  9  1  0
  2  3  2  0
  2  7  1  0
  3  5  1  0
  3  6  1  0
  4  5  1  0
  7  8  1  0
  8 11  1  0
  9 10  2  0
  9 12  1  0
 12 13  1  0
 13 14  1  0
M  END

$$$$

     RDKit          3D

 30 34  0  0  0  0  0  0  0  0999 V2000
    0.0000    0.0000    0.0000 C   0  0  0  0  0  0  0  0  0  0  0  0
    0.0000    0.0000    1.4678 C   0  0  0  0  0  0  0  0  0  0  0  0
    1.2856    0.0000    1.9424 C   0  0  0  0  0  0  0  0  0  0  0  0
    1.3279   -0.0652   -0.4701 C   0  0  0  0  0  0  0  0  0  0  0  0
    2.4517   -0.0574    0.7842 S   0  0  0  0  0  0  0  0  0  0  0  0
   -1.1388    0.0000    2.2017 N   0  0  0  0  0  0  0  0  0  0  0  0
   -1.2686    0.0538    3.5727 C   0  0  0  0  0  0  0  0  0  0  0  0
   -0.3524    0.1108    4.3476 O   0  0  0  0  0  0  0  0  0  0  0  0
   -2.7058   -0.0274    3.9700 C   0  0  0  0  0  0  0  0  0  0  0  0
   -3.0320    0.0631    5.2738 C   0  0  0  0  0  0  0  0  0  0  0  0
   -4.3690    0.0651    5.8590 C   0  0  0  0  0  0  0  0  0  0  0  0
   -5.4098    0.8883    5.3582 C   0  0  0  0  0  0  0  0  0  0  0  0
   -4.6537   -0.7278    6.9598 C   0  0  0  0  0  0  0  0  0  0  0  0
   -6.6771    0.8195    5.9154 C   0  0  0  0  0  0  0  0  0  0  0  0
   -5.9131   -0.7961    7.5155 C   0  0  0  0  0  0  0  0  0  0  0  0
   -6.9472   -0.1168    6.9459 C   0  0  0  0  0  0  0  0  0  0  0  0
   -8.1151    1.7127    5.5937 S   0  0  0  0  0  0  0  0  0  0  0  0
   -8.2468   -0.0731    7.3261 N   0  0  0  0  0  0  0  0  0  0  0  0
   -8.9404    0.7770    6.7391 N   0  0  0  0  0  0  0  0  0  0  0  0
   -5.1414    1.8524    4.3189 N   0  0  0  0  0  0  0  0  0  0  0  0
   -4.0253    2.3176    4.1981 O   0  0  0  0  0  0  0  0  0  0  0  0
   -3.8903   -0.2906    2.8162 Cl  0  0  0  0  0  0  0  0  0  0  0  0
   -1.0438    0.0513   -0.9347 C   0  0  0  0  0  0  0  0  0  0  0  0
   -2.4107    0.1859   -0.8199 N   0  0  0  0  0  0  0  0  0  0  0  0
   -0.7612   -0.0195   -2.3395 C   0  0  0  0  0  0  0  0  0  0  0  0
   -3.0471    0.1321   -2.0147 C   0  0  0  0  0  0  0  0  0  0  0  0
   -2.0467    0.0074   -2.9186 C   0  0  0  0  0  0  0  0  0  0  0  0
    0.5625   -0.1377   -2.7044 C   0  0  0  0  0  0  0  0  0  0  0  0
   -2.3403   -0.0931   -4.2778 C   0  0  0  0  0  0  0  0  0  0  0  0
    1.6229   -0.1931   -1.8505 C   0  0  0  0  0  0  0  0  0  0  0  0
  1  2  1  0
  1  4  1  0
  1 23  1  0
  2  3  2  0
  2  6  1  0
  3  5  1  0
  4  5  1  0
  4 30  1  0
  6  7  1  0
  7  8  2  0
  7  9  1  0
  9 10  2  3
  9 22  1  0
 10 11  1  0
 11 12  2  0
 11 13  1  0
 12 14  1  0
 12 20  1  0
 13 15  2  0
 14 16  2  0
 14 17  1  0
 15 16  1  0
 16 18  1  0
 17 19  1  0
 18 19  2  0
 20 21  2  0
 23 24  2  0
 23 25  1  0
 24 26  1  0
 25 27  1  0
 25 28  2  0
 26 27  2  0
 27 29  1  0
 28 30  2  0
M  END

$$$$

     RDKit          3D

 31 34  0  0  0  0  0  0  0  0999 V2000
    0.0000    0.0000    0.0000 C   0  0  0  0  0  0  0  0  0  0  0  0
    0.0000    0.0000    1.4346 C   0  0  0  0  0  0  0  0  0  0  0  0
    1.2620    0.0000    1.9483 C   0  0  0  0  0  0  0  0  0  0  0  0
    1.2643   -0.1245   -0.5139 C   0  0  0  0  0  0  0  0  0  0  0  0
    2.4600   -0.0540    0.6836 S   0  0  0  0  0  0  0  0  0  0  0  0
   -1.2045    0.0592    2.3007 C   0  0  0  0  0  0  0  0  0  0  0  0
    1.6225    0.2766    3.3797 C   0  0  0  0  0  0  0  0  0  0  0  0
   -1.2360    0.1833   -0.7214 C   0  0  0  0  0  0  0  0  0  0  0  0
   -2.3271    0.1297   -0.1581 O   0  0  0  0  0  0  0  0  0  0  0  0
    1.0255    1.5114    3.8787 N   0  0  0  0  0  0  0  0  0  0  0  0
    1.5975    2.6571    3.1960 C   0  0  0  0  0  0  0  0  0  0  0  0
    0.6812    3.8590    3.4738 C   0  0  0  0  0  0  0  0  0  0  0  0
   -0.7307    3.6140    2.8490 C   0  0  0  0  0  0  0  0  0  0  0  0
    0.5363    4.0239    4.9595 C   0  0  0  0  0  0  0  0  0  0  0  0
    0.3192    5.2588    5.5317 C   0  0  0  0  0  0  0  0  0  0  0  0
    0.6565    2.8834    5.7662 C   0  0  0  0  0  0  0  0  0  0  0  0
    0.1435    5.3543    6.8954 C   0  0  0  0  0  0  0  0  0  0  0  0
    0.5787    2.9957    7.1616 C   0  0  0  0  0  0  0  0  0  0  0  0
    0.2411    4.2400    7.6870 C   0  0  0  0  0  0  0  0  0  0  0  0
    0.7245    2.0213    8.1028 O   0  0  0  0  0  0  0  0  0  0  0  0
    0.8405    1.6431    5.2332 O   0  0  0  0  0  0  0  0  0  0  0  0
    1.4801    0.8635    7.8248 C   0  0  0  0  0  0  0  0  0  0  0  0
   -0.6937    4.3533    1.5224 C   0  0  0  0  0  0  0  0  0  0  0  0
   -0.4967    3.6652    0.3354 C   0  0  0  0  0  0  0  0  0  0  0  0
   -0.8397    5.7621    1.4477 C   0  0  0  0  0  0  0  0  0  0  0  0
   -0.4060    4.3017   -0.8927 C   0  0  0  0  0  0  0  0  0  0  0  0
   -0.6676    6.4077    0.2150 C   0  0  0  0  0  0  0  0  0  0  0  0
   -0.4628    5.6946   -0.8957 C   0  0  0  0  0  0  0  0  0  0  0  0
   -0.2630    3.5919   -2.0194 O   0  0  0  0  0  0  0  0  0  0  0  0
   -1.1963    6.5198    2.5028 O   0  0  0  0  0  0  0  0  0  0  0  0
   -1.7078    4.1380    3.7334 O   0  0  0  0  0  0  0  0  0  0  0  0
  1  2  1  0
  1  4  2  0
  1  8  1  0
  2  3  2  0
  2  6  1  0
  3  5  1  0
  3  7  1  0
  4  5  1  0
  7 10  1  0
  8  9  2  0
 10 11  1  0
 10 21  1  0
 11 12  1  0
 12 13  1  0
 12 14  1  0
 13 23  1  0
 13 31  1  0
 14 15  2  0
 14 16  1  0
 15 17  1  0
 16 18  2  0
 16 21  1  0
 17 19  2  0
 18 19  1  0
 18 20  1  0
 20 22  1  0
 23 24  2  0
 23 25  1  0
 24 26  1  0
 25 27  2  0
 25 30  1  0
 26 28  2  0
 26 29  1  0
 27 28  1  0
M  END

$$$$

     RDKit          3D

 32 35  0  0  0  0  0  0  0  0999 V2000
    0.0000    0.0000    0.0000 C   0  0  0  0  0  0  0  0  0  0  0  0
    0.0000    0.0000    1.4346 C   0  0  0  0  0  0  0  0  0  0  0  0
    1.3080    0.0000    1.8691 C   0  0  0  0  0  0  0  0  0  0  0  0
    1.2301    0.0604   -0.5645 C   0  0  0  0  0  0  0  0  0  0  0  0
    2.4563    0.1853    0.6678 S   0  0  0  0  0  0  0  0  0  0  0  0
   -1.1922    0.0000    2.2028 C   0  0  0  0  0  0  0  0  0  0  0  0
   -2.5404   -0.0662    1.8543 C   0  0  0  0  0  0  0  0  0  0  0  0
   -1.1393    0.1276    3.5505 O   0  0  0  0  0  0  0  0  0  0  0  0
   -3.2906    0.0210    2.9697 N   0  0  0  0  0  0  0  0  0  0  0  0
   -2.4847    0.1366    3.9158 C   0  0  0  0  0  0  0  0  0  0  0  0
   -3.2366   -0.2351    0.5441 C   0  0  0  0  0  0  0  0  0  0  0  0
   -2.8539    0.2015    5.2752 C   0  0  0  0  0  0  0  0  0  0  0  0
   -4.0992    0.1644    5.7457 C   0  0  0  0  0  0  0  0  0  0  0  0
    1.6695    0.1404   -1.9716 C   0  0  0  0  0  0  0  0  0  0  0  0
    0.8762    0.0497   -2.8691 O   0  0  0  0  0  0  0  0  0  0  0  0
   -4.3466    0.1839    7.2010 C   0  0  0  0  0  0  0  0  0  0  0  0
   -3.4395    0.0214    8.0036 O   0  0  0  0  0  0  0  0  0  0  0  0
    2.9886    0.3411   -2.1571 O   0  0  0  0  0  0  0  0  0  0  0  0
    3.5427    0.3814   -3.4620 C   0  0  0  0  0  0  0  0  0  0  0  0
   -5.7158    0.3559    7.6499 C   0  0  0  0  0  0  0  0  0  0  0  0
   -6.8288    0.7577    6.9279 C   0  0  0  0  0  0  0  0  0  0  0  0
   -6.0181    0.2509    9.0067 N   0  0  0  0  0  0  0  0  0  0  0  0
   -7.8185    0.8933    7.9118 C   0  0  0  0  0  0  0  0  0  0  0  0
   -7.3319    0.5011    9.1673 C   0  0  0  0  0  0  0  0  0  0  0  0
   -9.1339    1.1769    8.0688 O   0  0  0  0  0  0  0  0  0  0  0  0
   -8.4291    0.5610   10.0640 C   0  0  0  0  0  0  0  0  0  0  0  0
   -9.3887    1.0642    9.3789 C   0  0  0  0  0  0  0  0  0  0  0  0
   -5.1621   -0.1387   10.0575 C   0  0  0  0  0  0  0  0  0  0  0  0
   -4.9435    0.7271   11.1281 C   0  0  0  0  0  0  0  0  0  0  0  0
   -4.5392   -1.3835    9.9806 C   0  0  0  0  0  0  0  0  0  0  0  0
   -4.1594    0.3722   12.1945 C   0  0  0  0  0  0  0  0  0  0  0  0
   -3.7465   -1.7435   11.0593 C   0  0  0  0  0  0  0  0  0  0  0  0
  1  2  1  0
  1  4  2  0
  2  3  2  0
  2  6  1  0
  3  5  1  0
  4  5  1  0
  4 14  1  0
  6  7  1  0
  6  8  1  0
  7  9  1  0
  7 11  1  0
  8 10  1  0
  9 10  2  0
 10 12  1  0
 12 13  2  3
 13 16  1  0
 14 15  2  0
 14 18  1  0
 16 17  2  0
 16 20  1  0
 18 19  1  0
 20 21  2  0
 20 22  1  0
 21 23  1  0
 22 24  1  0
 22 28  1  0
 23 24  2  0
 23 25  1  0
 24 26  1  0
 25 27  1  0
 26 27  2  0
 28 29  1  0
 28 30  1  0
 29 31  2  0
 30 32  2  0
M  END

$$$$

     RDKit          3D

 18 19  0  0  0  0  0  0  0  0999 V2000
    0.0000    0.0000    0.0000 C   0  0  0  0  0  0  0  0  0  0  0  0
    0.0000    0.0000    1.3548 C   0  0  0  0  0  0  0  0  0  0  0  0
    1.2303    0.0000    1.9033 C   0  0  0  0  0  0  0  0  0  0  0  0
    1.1954    0.0587   -0.5486 C   0  0  0  0  0  0  0  0  0  0  0  0
    2.4139    0.0547    0.6697 S   0  0  0  0  0  0  0  0  0  0  0  0
    1.4796    0.1299   -1.9613 C   0  0  0  0  0  0  0  0  0  0  0  0
    0.5650   -0.3632   -2.7203 N   0  0  0  0  0  0  0  0  0  0  0  0
    2.6901    0.6025   -2.4436 N   0  0  0  0  0  0  0  0  0  0  0  0
    2.6274    1.6641   -3.3574 C   0  0  0  0  0  0  0  0  0  0  0  0
    1.6429    1.6255   -4.3550 C   0  0  0  0  0  0  0  0  0  0  0  0
    3.4353    2.7902   -3.3332 C   0  0  0  0  0  0  0  0  0  0  0  0
    1.5735    2.6333   -5.3158 C   0  0  0  0  0  0  0  0  0  0  0  0
    3.3696    3.7865   -4.2833 C   0  0  0  0  0  0  0  0  0  0  0  0
    2.4576    3.7192   -5.2450 C   0  0  0  0  0  0  0  0  0  0  0  0
    0.7876    0.4121   -4.3771 C   0  0  0  0  0  0  0  0  0  0  0  0
    0.1628    0.1085   -5.3487 O   0  0  0  0  0  0  0  0  0  0  0  0
    0.7100    2.6773   -6.3488 O   0  0  0  0  0  0  0  0  0  0  0  0
    3.9147    0.0961   -1.8523 C   0  0  0  0  0  0  0  0  0  0  0  0
  1  2  2  0
  1  4  2  0
  2  3  2  0
  3  5  1  0
  4  5  1  0
  4  6  1  0
  6  7  2  0
  6  8  1  0
  8  9  1  0
  8 18  1  0
  9 10  2  0
  9 11  1  0
 10 12  1  0
 10 15  1  0
 11 13  2  0
 12 14  2  0
 12 17  1  0
 13 14  1  0
 15 16  2  0
M  END

$$$$

     RDKit          3D

 31 33  0  0  0  0  0  0  0  0999 V2000
    0.0000    0.0000    0.0000 C   0  0  0  0  0  0  0  0  0  0  0  0
    0.0000    0.0000    1.3165 C   0  0  0  0  0  0  0  0  0  0  0  0
    1.5828    0.0000    2.0223 S   0  0  0  0  0  0  0  0  0  0  0  0
    1.4083    0.0000   -0.5697 C   0  0  0  0  0  0  0  0  0  0  0  0
    2.3006   -0.0501    0.4279 C   0  0  0  0  0  0  0  0  0  0  0  0
   -1.2409    0.0000   -0.7996 C   0  0  0  0  0  0  0  0  0  0  0  0
   -2.3546    0.0000   -0.3492 O   0  0  0  0  0  0  0  0  0  0  0  0
    1.3554    0.1276   -1.9174 O   0  0  0  0  0  0  0  0  0  0  0  0
   -0.9081    0.0527   -2.0880 O   0  0  0  0  0  0  0  0  0  0  0  0
   -1.9780    0.0052   -3.0302 C   0  0  0  0  0  0  0  0  0  0  0  0
    2.4597   -0.1745   -2.6705 C   0  0  0  0  0  0  0  0  0  0  0  0
    3.5013   -0.6635   -2.3022 O   0  0  0  0  0  0  0  0  0  0  0  0
   -2.3943   -1.4014   -3.3905 C   0  0  0  0  0  0  0  0  0  0  0  0
   -3.6895   -1.7025   -3.7817 C   0  0  0  0  0  0  0  0  0  0  0  0
   -1.4485   -2.4037   -3.3706 C   0  0  0  0  0  0  0  0  0  0  0  0
   -4.1075   -2.9742   -4.1710 C   0  0  0  0  0  0  0  0  0  0  0  0
   -1.8615   -3.6535   -3.7518 C   0  0  0  0  0  0  0  0  0  0  0  0
   -3.1385   -3.9959   -4.0944 C   0  0  0  0  0  0  0  0  0  0  0  0
   -5.3615   -3.3081   -4.6113 O   0  0  0  0  0  0  0  0  0  0  0  0
    2.1719    0.0812   -3.9533 N   0  0  0  0  0  0  0  0  0  0  0  0
    3.2037   -0.2302   -4.9250 C   0  0  0  0  0  0  0  0  0  0  0  0
   -3.3741   -5.3072   -4.3802 O   0  0  0  0  0  0  0  0  0  0  0  0
   -0.6460   -4.8844   -3.6476 Cl  0  0  0  0  0  0  0  0  0  0  0  0
    3.6183    1.0721   -5.6275 C   0  0  0  0  0  0  0  0  0  0  0  0
    4.4763    0.7614   -6.8639 C   0  0  0  0  0  0  0  0  0  0  0  0
   -4.6436   -5.8791   -4.6036 C   0  0  0  0  0  0  0  0  0  0  0  0
    5.6489   -0.1814   -6.5109 C   0  0  0  0  0  0  0  0  0  0  0  0
    5.0766   -1.6227   -6.7078 C   0  0  0  0  0  0  0  0  0  0  0  0
    5.5818   -2.2100   -8.0145 C   0  0  0  0  0  0  0  0  0  0  0  0
    2.5982   -1.2353   -5.9308 C   0  0  0  0  0  0  0  0  0  0  0  0
    3.5241   -1.3618   -7.1285 C   0  0  0  0  0  0  0  0  0  0  0  0
  1  2  2  0
  1  4  1  0
  1  6  1  0
  2  3  1  0
  3  5  1  0
  4  5  2  0
  4  8  1  0
  6  7  2  0
  6  9  1  0
  8 11  1  0
  9 10  1  0
 10 13  1  0
 11 12  2  0
 11 20  1  0
 13 14  2  0
 13 15  1  0
 14 16  1  0
 15 17  2  0
 16 18  2  0
 16 19  1  0
 17 18  1  0
 17 23  1  0
 18 22  1  0
 20 21  1  0
 21 24  1  0
 21 30  1  0
 22 26  1  0
 24 25  1  0
 25 27  1  0
 27 28  1  0
 28 29  1  0
 28 31  1  0
 30 31  1  0
M  END

$$$$

     RDKit          3D

 28 29  0  0  0  0  0  0  0  0999 V2000
    0.0000    0.0000    0.0000 S   0  0  0  0  0  0  0  0  0  0  0  0
    0.0000    0.0000    1.6937 C   0  0  0  0  0  0  0  0  0  0  0  0
    1.2156    0.0000    2.3093 C   0  0  0  0  0  0  0  0  0  0  0  0
    1.7014   -0.0836    0.0000 C   0  0  0  0  0  0  0  0  0  0  0  0
    2.2945   -0.1650    1.1981 C   0  0  0  0  0  0  0  0  0  0  0  0
    1.5029   -0.0572    3.7221 C   0  0  0  0  0  0  0  0  0  0  0  0
    2.5253    0.1794    4.3067 O   0  0  0  0  0  0  0  0  0  0  0  0
    3.7348   -0.3070    1.4893 C   0  0  0  0  0  0  0  0  0  0  0  0
    4.5703    0.3939    0.9534 O   0  0  0  0  0  0  0  0  0  0  0  0
    4.0312   -1.3371    2.3682 N   0  0  0  0  0  0  0  0  0  0  0  0
    5.3760   -1.5409    2.7701 C   0  0  0  0  0  0  0  0  0  0  0  0
    6.0679   -0.4230    3.2093 C   0  0  0  0  0  0  0  0  0  0  0  0
    5.8772   -2.8492    2.7147 C   0  0  0  0  0  0  0  0  0  0  0  0
    7.3917   -0.6617    3.5442 C   0  0  0  0  0  0  0  0  0  0  0  0
    7.2172   -2.9922    3.0716 C   0  0  0  0  0  0  0  0  0  0  0  0
    7.9814   -1.9300    3.4463 C   0  0  0  0  0  0  0  0  0  0  0  0
    5.0064   -3.9469    2.2498 C   0  0  0  0  0  0  0  0  0  0  0  0
    5.4629   -5.0349    1.9590 O   0  0  0  0  0  0  0  0  0  0  0  0
    3.0823   -2.2993    2.7419 C   0  0  0  0  0  0  0  0  0  0  0  0
    3.0561   -2.9589    3.8810 C   0  0  0  0  0  0  0  0  0  0  0  0
    9.2400   -2.2165    3.8034 F   0  0  0  0  0  0  0  0  0  0  0  0
    8.1883    0.3707    3.9392 O   0  0  0  0  0  0  0  0  0  0  0  0
    4.0755   -2.3526    5.2264 S   0  0  0  0  0  0  0  0  0  0  0  0
    7.7315    1.6934    4.0278 C   0  0  0  0  0  0  0  0  0  0  0  0
    7.0188    1.9882    5.3568 C   0  0  0  0  0  0  0  0  0  0  0  0
    5.9433    1.2465    5.6147 F   0  0  0  0  0  0  0  0  0  0  0  0
    7.8138    1.7780    6.4140 F   0  0  0  0  0  0  0  0  0  0  0  0
    6.6449    3.2650    5.4166 F   0  0  0  0  0  0  0  0  0  0  0  0
  1  2  1  0
  1  4  1  0
  2  3  2  0
  3  5  1  0
  3  6  1  0
  4  5  2  0
  5  8  1  0
  6  7  2  0
  8  9  2  0
  8 10  1  0
 10 11  1  0
 10 19  1  0
 11 12  2  0
 11 13  1  0
 12 14  1  0
 13 15  2  0
 13 17  1  0
 14 16  2  0
 14 22  1  0
 15 16  1  0
 16 21  1  0
 17 18  2  0
 19 20  2  3
 20 23  1  0
 22 24  1  0
 24 25  1  0
 25 26  1  0
 25 27  1  0
 25 28  1  0
M  END

$$$$

     RDKit          3D

 30 32  0  0  0  0  0  0  0  0999 V2000
    0.0000    0.0000    0.0000 C   0  0  0  0  0  0  0  0  0  0  0  0
    0.0000    0.0000    1.3704 C   0  0  0  0  0  0  0  0  0  0  0  0
    1.5469    0.0000    2.0601 S   0  0  0  0  0  0  0  0  0  0  0  0
    1.3203   -0.0649   -0.4674 C   0  0  0  0  0  0  0  0  0  0  0  0
    2.3182   -0.1664    0.5354 C   0  0  0  0  0  0  0  0  0  0  0  0
    1.7630   -0.0286   -1.8664 C   0  0  0  0  0  0  0  0  0  0  0  0
    2.9420   -0.2257   -2.1526 O   0  0  0  0  0  0  0  0  0  0  0  0
    0.8240    0.1395   -2.8393 N   0  0  0  0  0  0  0  0  0  0  0  0
    0.8225    0.1716   -4.2654 C   0  0  0  0  0  0  0  0  0  0  0  0
    1.7620   -0.4325   -5.1129 C   0  0  0  0  0  0  0  0  0  0  0  0
   -0.2174    0.8675   -4.8980 C   0  0  0  0  0  0  0  0  0  0  0  0
    1.5576   -0.3334   -6.4965 C   0  0  0  0  0  0  0  0  0  0  0  0
   -0.4209    0.9651   -6.2738 C   0  0  0  0  0  0  0  0  0  0  0  0
    0.4511    0.2779   -7.0254 C   0  0  0  0  0  0  0  0  0  0  0  0
    2.8489   -1.1610   -4.7329 O   0  0  0  0  0  0  0  0  0  0  0  0
    3.6146   -0.7054   -3.6189 C   0  0  0  0  0  0  0  0  0  0  0  0
   -1.1110    1.4348   -4.0277 O   0  0  0  0  0  0  0  0  0  0  0  0
   -1.5768    1.6758   -6.8973 C   0  0  0  0  0  0  0  0  0  0  0  0
   -2.3328    1.1468   -7.6986 O   0  0  0  0  0  0  0  0  0  0  0  0
   -2.1604    2.1993   -4.5353 C   0  0  0  0  0  0  0  0  0  0  0  0
   -1.7468    2.9394   -6.4392 N   0  0  0  0  0  0  0  0  0  0  0  0
   -2.8895    3.6536   -6.9777 C   0  0  0  0  0  0  0  0  0  0  0  0
   -2.6386    4.1908   -8.3669 C   0  0  0  0  0  0  0  0  0  0  0  0
   -1.8965    5.3319   -8.5831 C   0  0  0  0  0  0  0  0  0  0  0  0
   -3.1285    3.5125   -9.4720 C   0  0  0  0  0  0  0  0  0  0  0  0
   -1.6529    5.7566   -9.8715 C   0  0  0  0  0  0  0  0  0  0  0  0
   -2.8800    3.9424  -10.7747 C   0  0  0  0  0  0  0  0  0  0  0  0
   -2.1239    5.0840  -10.9882 C   0  0  0  0  0  0  0  0  0  0  0  0
   -3.9026    2.3826   -9.4280 O   0  0  0  0  0  0  0  0  0  0  0  0
   -4.4279    2.0149   -8.1447 C   0  0  0  0  0  0  0  0  0  0  0  0
  1  2  2  0
  1  4  1  0
  2  3  1  0
  3  5  1  0
  4  5  1  0
  4  6  1  0
  6  7  2  0
  6  8  1  0
  8  9  1  0
  9 10  2  0
  9 11  1  0
 10 12  1  0
 10 15  1  0
 11 13  2  0
 11 17  1  0
 12 14  2  0
 13 14  1  0
 13 18  1  0
 15 16  1  0
 17 20  1  0
 18 19  2  0
 18 21  1  0
 21 22  1  0
 22 23  1  0
 23 24  2  0
 23 25  1  0
 24 26  1  0
 25 27  2  0
 25 29  1  0
 26 28  2  0
 27 28  1  0
 29 30  1  0
M  END

$$$$

     RDKit          3D

 31 35  0  0  0  0  0  0  0  0999 V2000
    0.0000    0.0000    0.0000 C   0  0  0  0  0  0  0  0  0  0  0  0
    0.0000    0.0000    1.4346 C   0  0  0  0  0  0  0  0  0  0  0  0
    1.3586    0.0000    1.8126 C   0  0  0  0  0  0  0  0  0  0  0  0
    1.2371   -0.0608   -0.5677 C   0  0  0  0  0  0  0  0  0  0  0  0
    2.4710   -0.0608    0.5359 S   0  0  0  0  0  0  0  0  0  0  0  0
   -0.9959   -0.0522    2.4316 C   0  0  0  0  0  0  0  0  0  0  0  0
   -0.6664   -0.0868    3.6980 N   0  0  0  0  0  0  0  0  0  0  0  0
    0.6275   -0.1292    4.0411 C   0  0  0  0  0  0  0  0  0  0  0  0
    1.6443   -0.1990    3.2077 N   0  0  0  0  0  0  0  0  0  0  0  0
    0.9522   -0.1137    5.4986 C   0  0  0  0  0  0  0  0  0  0  0  0
   -1.1590    0.0000   -0.9280 C   0  0  0  0  0  0  0  0  0  0  0  0
   -1.2059   -0.7150   -1.9266 O   0  0  0  0  0  0  0  0  0  0  0  0
   -2.3116   -0.1211    2.1510 O   0  0  0  0  0  0  0  0  0  0  0  0
   -2.2061    0.9490   -0.5631 C   0  0  0  0  0  0  0  0  0  0  0  0
   -3.4333    0.7911   -1.2396 C   0  0  0  0  0  0  0  0  0  0  0  0
   -2.0456    1.9937    0.3582 C   0  0  0  0  0  0  0  0  0  0  0  0
   -4.4055    1.6768   -0.8275 C   0  0  0  0  0  0  0  0  0  0  0  0
   -3.0162    2.8813    0.7701 C   0  0  0  0  0  0  0  0  0  0  0  0
   -4.2527    2.6971    0.1102 C   0  0  0  0  0  0  0  0  0  0  0  0
   -5.3142    3.5043    0.3486 O   0  0  0  0  0  0  0  0  0  0  0  0
   -3.2619    0.0361    3.1699 C   0  0  0  0  0  0  0  0  0  0  0  0
   -3.7652   -0.2257   -2.2694 C   0  0  0  0  0  0  0  0  0  0  0  0
   -5.4411    4.2820    1.4987 C   0  0  0  0  0  0  0  0  0  0  0  0
   -5.3635    3.6266    2.7357 C   0  0  0  0  0  0  0  0  0  0  0  0
   -5.5926    5.6656    1.4205 C   0  0  0  0  0  0  0  0  0  0  0  0
   -5.5444    4.4326    3.8489 C   0  0  0  0  0  0  0  0  0  0  0  0
   -5.7708    6.4688    2.5263 C   0  0  0  0  0  0  0  0  0  0  0  0
   -5.8526    5.8160    3.7974 C   0  0  0  0  0  0  0  0  0  0  0  0
   -5.4638    4.0535    5.1551 O   0  0  0  0  0  0  0  0  0  0  0  0
   -6.0115    6.2613    5.1519 C   0  0  0  0  0  0  0  0  0  0  0  0
   -5.7628    5.1506    5.8915 C   0  0  0  0  0  0  0  0  0  0  0  0
  1  2  1  0
  1  4  2  0
  1 11  1  0
  2  3  2  0
  2  6  1  0
  3  5  1  0
  3  9  1  0
  4  5  1  0
  6  7  2  0
  6 13  1  0
  7  8  1  0
  8  9  2  0
  8 10  1  0
 11 12  2  0
 11 14  1  0
 13 21  1  0
 14 15  2  0
 14 16  1  0
 15 17  1  0
 15 22  1  0
 16 18  2  0
 17 19  2  0
 18 19  1  0
 19 20  1  0
 20 23  1  0
 23 24  2  0
 23 25  1  0
 24 26  1  0
 25 27  2  0
 26 28  2  0
 26 29  1  0
 27 28  1  0
 28 30  1  0
 29 31  1  0
 30 31  2  0
M  END

$$$$

     RDKit          3D

 26 28  0  0  0  0  0  0  0  0999 V2000
    0.0000    0.0000    0.0000 C   0  0  0  0  0  0  0  0  0  0  0  0
    0.0000    0.0000    1.3548 C   0  0  0  0  0  0  0  0  0  0  0  0
    1.5228    0.0000    2.0039 S   0  0  0  0  0  0  0  0  0  0  0  0
    1.2877    0.0633   -0.5909 C   0  0  0  0  0  0  0  0  0  0  0  0
    2.2233    0.0567    0.4533 C   0  0  0  0  0  0  0  0  0  0  0  0
    1.7854    0.1442   -1.9340 C   0  0  0  0  0  0  0  0  0  0  0  0
    3.1191    0.0226   -1.9162 N   0  0  0  0  0  0  0  0  0  0  0  0
    1.2559    0.0583   -3.2382 C   0  0  0  0  0  0  0  0  0  0  0  0
    3.7987    0.2203   -3.0533 C   0  0  0  0  0  0  0  0  0  0  0  0
    1.9933    0.4414   -4.3775 C   0  0  0  0  0  0  0  0  0  0  0  0
    3.2299    0.6527   -4.2043 N   0  0  0  0  0  0  0  0  0  0  0  0
   -0.0987   -0.4438   -3.4456 C   0  0  0  0  0  0  0  0  0  0  0  0
   -0.6994   -1.3291   -2.8696 O   0  0  0  0  0  0  0  0  0  0  0  0
    5.1204   -0.0361   -3.0121 N   0  0  0  0  0  0  0  0  0  0  0  0
   -0.5486    0.2077   -4.5259 O   0  0  0  0  0  0  0  0  0  0  0  0
    5.9339    0.3618   -4.1459 C   0  0  0  0  0  0  0  0  0  0  0  0
    5.6284   -0.3967   -5.4888 C   0  0  0  0  0  0  0  0  0  0  0  0
    5.7928   -0.5540   -1.8554 C   0  0  0  0  0  0  0  0  0  0  0  0
   -1.7744   -0.3517   -4.9940 C   0  0  0  0  0  0  0  0  0  0  0  0
    4.9760    0.4157   -6.4151 O   0  0  0  0  0  0  0  0  0  0  0  0
   -1.5445   -1.5252   -5.8741 C   0  0  0  0  0  0  0  0  0  0  0  0
   -1.4925   -2.8784   -5.6181 C   0  0  0  0  0  0  0  0  0  0  0  0
   -1.1806   -1.3919   -7.1562 N   0  0  0  0  0  0  0  0  0  0  0  0
   -1.0969   -3.5374   -6.7432 N   0  0  0  0  0  0  0  0  0  0  0  0
   -1.0038   -2.6219   -7.6560 C   0  0  0  0  0  0  0  0  0  0  0  0
   -0.8053   -4.9068   -7.0921 C   0  0  0  0  0  0  0  0  0  0  0  0
  1  2  2  0
  1  4  1  0
  2  3  1  0
  3  5  1  0
  4  5  1  0
  4  6  1  0
  6  7  2  0
  6  8  1  0
  7  9  1  0
  8 10  2  0
  8 12  1  0
  9 11  2  0
  9 14  1  0
 10 11  1  0
 12 13  2  0
 12 15  1  0
 14 16  1  0
 14 18  1  0
 15 19  1  0
 16 17  1  0
 17 20  1  0
 19 21  1  0
 21 22  2  0
 21 23  1  0
 22 24  1  0
 23 25  2  0
 24 25  1  0
 24 26  1  0
M  END

$$$$

     RDKit          3D

 19 20  0  0  0  0  0  0  0  0999 V2000
    0.0000    0.0000    0.0000 S   0  0  0  0  0  0  0  0  0  0  0  0
    0.0000    0.0000    1.6744 C   0  0  0  0  0  0  0  0  0  0  0  0
    1.2558    0.0000    2.1617 C   0  0  0  0  0  0  0  0  0  0  0  0
    1.6634    0.0000   -0.0694 C   0  0  0  0  0  0  0  0  0  0  0  0
    2.2737   -0.0534    1.1565 C   0  0  0  0  0  0  0  0  0  0  0  0
    3.6498   -0.1279    1.5246 C   0  0  0  0  0  0  0  0  0  0  0  0
    4.5567   -0.1528    0.4975 C   0  0  0  0  0  0  0  0  0  0  0  0
    5.9202   -0.1761    0.9158 C   0  0  0  0  0  0  0  0  0  0  0  0
    6.7454   -0.1454   -0.2173 C   0  0  0  0  0  0  0  0  0  0  0  0
    6.5499   -0.1793    2.1776 C   0  0  0  0  0  0  0  0  0  0  0  0
    8.0534   -0.1173    0.1343 C   0  0  0  0  0  0  0  0  0  0  0  0
    7.8736   -0.1529    2.5313 C   0  0  0  0  0  0  0  0  0  0  0  0
    8.6859   -0.1142    1.3947 C   0  0  0  0  0  0  0  0  0  0  0  0
    8.4972   -0.1033    3.9062 C   0  0  0  0  0  0  0  0  0  0  0  0
    9.9336   -0.1406    1.8592 O   0  0  0  0  0  0  0  0  0  0  0  0
    9.1543    1.1946    4.2428 N   0  0  0  0  0  0  0  0  0  0  0  0
   10.8157   -0.1193    0.7592 C   0  0  0  0  0  0  0  0  0  0  0  0
    9.9568    1.2236    5.4715 C   0  0  0  0  0  0  0  0  0  0  0  0
    8.1682    2.2818    4.2478 C   0  0  0  0  0  0  0  0  0  0  0  0
  1  2  1  0
  1  4  1  0
  2  3  2  0
  3  5  1  0
  4  5  2  0
  5  6  1  0
  6  7  2  3
  7  8  1  0
  8  9  2  0
  8 10  1  0
  9 11  1  0
 10 12  2  0
 11 13  2  0
 12 13  1  0
 12 14  1  0
 13 15  1  0
 14 16  1  0
 15 17  1  0
 16 18  1  0
 16 19  1  0
M  END

$$$$

     RDKit          3D

 23 25  0  0  0  0  0  0  0  0999 V2000
    0.0000    0.0000    0.0000 S   0  0  0  0  0  0  0  0  0  0  0  0
    0.0000    0.0000    1.6744 C   0  0  0  0  0  0  0  0  0  0  0  0
    1.2630    0.0000    2.1645 C   0  0  0  0  0  0  0  0  0  0  0  0
    1.6938    0.1668   -0.0710 C   0  0  0  0  0  0  0  0  0  0  0  0
    2.3169    0.1736    1.1761 C   0  0  0  0  0  0  0  0  0  0  0  0
    3.0055    0.4277   -1.1418 S   0  0  0  0  0  0  0  0  0  0  0  0
    3.7095    0.4425    1.1782 C   0  0  0  0  0  0  0  0  0  0  0  0
    4.2931    0.5903    0.0515 C   0  0  0  0  0  0  0  0  0  0  0  0
    5.6718    1.1090   -0.1345 C   0  0  0  0  0  0  0  0  0  0  0  0
    6.2109    0.4402   -1.2224 N   0  0  0  0  0  0  0  0  0  0  0  0
    6.0976    2.1623    0.3158 O   0  0  0  0  0  0  0  0  0  0  0  0
    5.9238   -0.8261   -1.7515 C   0  0  0  0  0  0  0  0  0  0  0  0
    6.1274   -1.2179   -3.0823 C   0  0  0  0  0  0  0  0  0  0  0  0
    5.3422   -1.7014   -0.8356 C   0  0  0  0  0  0  0  0  0  0  0  0
    5.7354   -2.4277   -3.6917 C   0  0  0  0  0  0  0  0  0  0  0  0
    4.9611   -2.8897   -1.4392 C   0  0  0  0  0  0  0  0  0  0  0  0
    5.0774   -3.3136   -2.8659 C   0  0  0  0  0  0  0  0  0  0  0  0
    7.3423    1.2726   -1.6188 C   0  0  0  0  0  0  0  0  0  0  0  0
    4.3591   -3.6872   -0.5244 F   0  0  0  0  0  0  0  0  0  0  0  0
    7.9416    0.6039   -2.8550 C   0  0  0  0  0  0  0  0  0  0  0  0
    6.7522   -0.3324   -3.8952 O   0  0  0  0  0  0  0  0  0  0  0  0
    5.9569   -2.8246   -5.3334 Cl  0  0  0  0  0  0  0  0  0  0  0  0
    8.7779    1.7135   -3.4691 C   0  0  0  0  0  0  0  0  0  0  0  0
  1  2  1  0
  1  4  1  0
  2  3  2  0
  3  5  1  0
  4  5  1  0
  4  6  1  0
  5  7  1  0
  6  8  1  0
  7  8  2  0
  8  9  1  0
  9 10  1  0
  9 11  2  0
 10 12  1  0
 10 18  1  0
 12 13  1  0
 12 14  1  0
 13 15  1  0
 13 21  1  0
 14 16  2  0
 15 17  2  0
 15 22  1  0
 16 17  1  0
 16 19  1  0
 18 20  1  0
 20 23  1  0
M  END

$$$$
